
---------- Begin Simulation Statistics ----------
sim_seconds                                  1.962611                       # Number of seconds simulated
sim_ticks                                1962611224000                       # Number of ticks simulated
final_tick                               1962611224000                       # Number of ticks from beginning of simulation (restored from checkpoints and never reset)
sim_freq                                 1000000000000                       # Frequency of simulated ticks
host_inst_rate                                 959944                       # Simulator instruction rate (inst/s)
host_op_rate                                  1537661                       # Simulator op (including micro ops) rate (op/s)
host_tick_rate                             2022149262                       # Simulator tick rate (ticks/s)
host_mem_usage                                 660248                       # Number of bytes of host memory used
host_seconds                                   970.56                       # Real time elapsed on the host
sim_insts                                   931679922                       # Number of instructions simulated
sim_ops                                    1492387816                       # Number of ops (including micro ops) simulated
system.voltage_domain.voltage                       1                       # Voltage in Volts
system.clk_domain.clock                          1000                       # Clock period in ticks
system.mem_ctrls.pwrStateResidencyTicks::UNDEFINED 1962611224000                       # Cumulative time (in ticks) in various power states
system.mem_ctrls.bytes_read::cpu.inst           22528                       # Number of bytes read from this memory
system.mem_ctrls.bytes_read::cpu.data         1094528                       # Number of bytes read from this memory
system.mem_ctrls.bytes_read::total            1117056                       # Number of bytes read from this memory
system.mem_ctrls.bytes_inst_read::cpu.inst        22528                       # Number of instructions bytes read from this memory
system.mem_ctrls.bytes_inst_read::total         22528                       # Number of instructions bytes read from this memory
system.mem_ctrls.bytes_written::writebacks        44352                       # Number of bytes written to this memory
system.mem_ctrls.bytes_written::total           44352                       # Number of bytes written to this memory
system.mem_ctrls.num_reads::cpu.inst              352                       # Number of read requests responded to by this memory
system.mem_ctrls.num_reads::cpu.data            17102                       # Number of read requests responded to by this memory
system.mem_ctrls.num_reads::total               17454                       # Number of read requests responded to by this memory
system.mem_ctrls.num_writes::writebacks           693                       # Number of write requests responded to by this memory
system.mem_ctrls.num_writes::total                693                       # Number of write requests responded to by this memory
system.mem_ctrls.bw_read::cpu.inst              11479                       # Total read bandwidth from this memory (bytes/s)
system.mem_ctrls.bw_read::cpu.data             557690                       # Total read bandwidth from this memory (bytes/s)
system.mem_ctrls.bw_read::total                569168                       # Total read bandwidth from this memory (bytes/s)
system.mem_ctrls.bw_inst_read::cpu.inst         11479                       # Instruction read bandwidth from this memory (bytes/s)
system.mem_ctrls.bw_inst_read::total            11479                       # Instruction read bandwidth from this memory (bytes/s)
system.mem_ctrls.bw_write::writebacks           22598                       # Write bandwidth from this memory (bytes/s)
system.mem_ctrls.bw_write::total                22598                       # Write bandwidth from this memory (bytes/s)
system.mem_ctrls.bw_total::writebacks           22598                       # Total bandwidth to/from this memory (bytes/s)
system.mem_ctrls.bw_total::cpu.inst             11479                       # Total bandwidth to/from this memory (bytes/s)
system.mem_ctrls.bw_total::cpu.data            557690                       # Total bandwidth to/from this memory (bytes/s)
system.mem_ctrls.bw_total::total               591767                       # Total bandwidth to/from this memory (bytes/s)
system.pwrStateResidencyTicks::UNDEFINED 1962611224000                       # Cumulative time (in ticks) in various power states
system.cpu_voltage_domain.voltage                   1                       # Voltage in Volts
system.cpu_clk_domain.clock                       500                       # Clock period in ticks
system.cpu.dtb.walker.pwrStateResidencyTicks::UNDEFINED 1962611224000                       # Cumulative time (in ticks) in various power states
system.cpu.dtb.rdAccesses                   382684107                       # TLB accesses on read requests
system.cpu.dtb.wrAccesses                    56342478                       # TLB accesses on write requests
system.cpu.dtb.rdMisses                       7936011                       # TLB misses on read requests
system.cpu.dtb.wrMisses                           272                       # TLB misses on write requests
system.cpu.apic_clk_domain.clock                 8000                       # Clock period in ticks
system.cpu.interrupts.pwrStateResidencyTicks::UNDEFINED 1962611224000                       # Cumulative time (in ticks) in various power states
system.cpu.itb.walker.pwrStateResidencyTicks::UNDEFINED 1962611224000                       # Cumulative time (in ticks) in various power states
system.cpu.itb.rdAccesses                           0                       # TLB accesses on read requests
system.cpu.itb.wrAccesses                  1449455657                       # TLB accesses on write requests
system.cpu.itb.rdMisses                             0                       # TLB misses on read requests
system.cpu.itb.wrMisses                            35                       # TLB misses on write requests
system.cpu.workload.numSyscalls                     9                       # Number of system calls
system.cpu.pwrStateResidencyTicks::ON    1962611224000                       # Cumulative time (in ticks) in various power states
system.cpu.numCycles                       3925222448                       # number of cpu cycles simulated
system.cpu.numWorkItemsStarted                      0                       # number of work items this cpu started
system.cpu.numWorkItemsCompleted                    0                       # number of work items this cpu completed
system.cpu.committedInsts                   931679922                       # Number of instructions committed
system.cpu.committedOps                    1492387816                       # Number of ops (including micro ops) committed
system.cpu.num_int_alu_accesses            1491881102                       # Number of integer alu accesses
system.cpu.num_fp_alu_accesses                   1943                       # Number of float alu accesses
system.cpu.num_vec_alu_accesses                     0                       # Number of vector alu accesses
system.cpu.num_func_calls                     1080242                       # number of times a function call or return occured
system.cpu.num_conditional_control_insts     29571466                       # number of instructions that are conditional controls
system.cpu.num_int_insts                   1491881102                       # number of integer instructions
system.cpu.num_fp_insts                          1943                       # number of float instructions
system.cpu.num_vec_insts                            0                       # number of vector instructions
system.cpu.num_int_register_reads          2934935104                       # number of times the integer registers were read
system.cpu.num_int_register_writes         1545692984                       # number of times the integer registers were written
system.cpu.num_fp_register_reads                 3767                       # number of times the floating registers were read
system.cpu.num_fp_register_writes                1480                       # number of times the floating registers were written
system.cpu.num_vec_register_reads                   0                       # number of times the vector registers were read
system.cpu.num_vec_register_writes                  0                       # number of times the vector registers were written
system.cpu.num_cc_register_reads            159199357                       # number of times the CC registers were read
system.cpu.num_cc_register_writes           523310546                       # number of times the CC registers were written
system.cpu.num_mem_refs                     439026583                       # number of memory refs
system.cpu.num_load_insts                   382684105                       # Number of load instructions
system.cpu.num_store_insts                   56342478                       # Number of store instructions
system.cpu.num_idle_cycles                          0                       # Number of idle cycles
system.cpu.num_busy_cycles                 3925222448                       # Number of busy cycles
system.cpu.not_idle_fraction                        1                       # Percentage of non-idle cycles
system.cpu.idle_fraction                            0                       # Percentage of idle cycles
system.cpu.Branches                          30742418                       # Number of branches fetched
system.cpu.op_class::No_OpClass                505293      0.03%      0.03% # Class of executed instruction
system.cpu.op_class::IntAlu                 915024194     61.31%     61.35% # Class of executed instruction
system.cpu.op_class::IntMult                135270004      9.06%     70.41% # Class of executed instruction
system.cpu.op_class::IntDiv                   2560782      0.17%     70.58% # Class of executed instruction
system.cpu.op_class::FloatAdd                      10      0.00%     70.58% # Class of executed instruction
system.cpu.op_class::FloatCmp                       0      0.00%     70.58% # Class of executed instruction
system.cpu.op_class::FloatCvt                       0      0.00%     70.58% # Class of executed instruction
system.cpu.op_class::FloatMult                      0      0.00%     70.58% # Class of executed instruction
system.cpu.op_class::FloatMultAcc                   0      0.00%     70.58% # Class of executed instruction
system.cpu.op_class::FloatDiv                       0      0.00%     70.58% # Class of executed instruction
system.cpu.op_class::FloatMisc                      0      0.00%     70.58% # Class of executed instruction
system.cpu.op_class::FloatSqrt                      0      0.00%     70.58% # Class of executed instruction
system.cpu.op_class::SimdAdd                      374      0.00%     70.58% # Class of executed instruction
system.cpu.op_class::SimdAddAcc                     0      0.00%     70.58% # Class of executed instruction
system.cpu.op_class::SimdAlu                       68      0.00%     70.58% # Class of executed instruction
system.cpu.op_class::SimdCmp                        0      0.00%     70.58% # Class of executed instruction
system.cpu.op_class::SimdCvt                      108      0.00%     70.58% # Class of executed instruction
system.cpu.op_class::SimdMisc                     214      0.00%     70.58% # Class of executed instruction
system.cpu.op_class::SimdMult                       0      0.00%     70.58% # Class of executed instruction
system.cpu.op_class::SimdMultAcc                    0      0.00%     70.58% # Class of executed instruction
system.cpu.op_class::SimdShift                    186      0.00%     70.58% # Class of executed instruction
system.cpu.op_class::SimdShiftAcc                   0      0.00%     70.58% # Class of executed instruction
system.cpu.op_class::SimdSqrt                       0      0.00%     70.58% # Class of executed instruction
system.cpu.op_class::SimdFloatAdd                   0      0.00%     70.58% # Class of executed instruction
system.cpu.op_class::SimdFloatAlu                   0      0.00%     70.58% # Class of executed instruction
system.cpu.op_class::SimdFloatCmp                   0      0.00%     70.58% # Class of executed instruction
system.cpu.op_class::SimdFloatCvt                   0      0.00%     70.58% # Class of executed instruction
system.cpu.op_class::SimdFloatDiv                   0      0.00%     70.58% # Class of executed instruction
system.cpu.op_class::SimdFloatMisc                  0      0.00%     70.58% # Class of executed instruction
system.cpu.op_class::SimdFloatMult                  0      0.00%     70.58% # Class of executed instruction
system.cpu.op_class::SimdFloatMultAcc               0      0.00%     70.58% # Class of executed instruction
system.cpu.op_class::SimdFloatSqrt                  0      0.00%     70.58% # Class of executed instruction
system.cpu.op_class::MemRead                382684049     25.64%     96.22% # Class of executed instruction
system.cpu.op_class::MemWrite                56342063      3.78%    100.00% # Class of executed instruction
system.cpu.op_class::FloatMemRead                  56      0.00%    100.00% # Class of executed instruction
system.cpu.op_class::FloatMemWrite                415      0.00%    100.00% # Class of executed instruction
system.cpu.op_class::IprAccess                      0      0.00%    100.00% # Class of executed instruction
system.cpu.op_class::InstPrefetch                   0      0.00%    100.00% # Class of executed instruction
system.cpu.op_class::total                 1492387816                       # Class of executed instruction
system.cpu.dcache.tags.pwrStateResidencyTicks::UNDEFINED 1962611224000                       # Cumulative time (in ticks) in various power states
system.cpu.dcache.tags.tagsinuse           511.895236                       # Cycle average of tags in use
system.cpu.dcache.tags.total_refs           439026585                       # Total number of references to valid blocks.
system.cpu.dcache.tags.sampled_refs           3127051                       # Sample count of references to valid blocks.
system.cpu.dcache.tags.avg_refs            140.396362                       # Average number of references to valid blocks.
system.cpu.dcache.tags.warmup_cycle            759000                       # Cycle when the warmup percentage was hit.
system.cpu.dcache.tags.occ_blocks::cpu.data   511.895236                       # Average occupied blocks per requestor
system.cpu.dcache.tags.occ_percent::cpu.data     0.999795                       # Average percentage of cache occupancy
system.cpu.dcache.tags.occ_percent::total     0.999795                       # Average percentage of cache occupancy
system.cpu.dcache.tags.occ_task_id_blocks::1024          512                       # Occupied blocks per task id
system.cpu.dcache.tags.age_task_id_blocks_1024::0           10                       # Occupied blocks per task id
system.cpu.dcache.tags.age_task_id_blocks_1024::1           52                       # Occupied blocks per task id
system.cpu.dcache.tags.age_task_id_blocks_1024::2          449                       # Occupied blocks per task id
system.cpu.dcache.tags.age_task_id_blocks_1024::4            1                       # Occupied blocks per task id
system.cpu.dcache.tags.occ_task_id_percent::1024            1                       # Percentage of cache occupancy per task id
system.cpu.dcache.tags.tag_accesses         881180221                       # Number of tag accesses
system.cpu.dcache.tags.data_accesses        881180221                       # Number of data accesses
system.cpu.dcache.pwrStateResidencyTicks::UNDEFINED 1962611224000                       # Cumulative time (in ticks) in various power states
system.cpu.dcache.ReadReq_hits::cpu.data    379577425                       # number of ReadReq hits
system.cpu.dcache.ReadReq_hits::total       379577425                       # number of ReadReq hits
system.cpu.dcache.WriteReq_hits::cpu.data     56322109                       # number of WriteReq hits
system.cpu.dcache.WriteReq_hits::total       56322109                       # number of WriteReq hits
system.cpu.dcache.demand_hits::cpu.data     435899534                       # number of demand (read+write) hits
system.cpu.dcache.demand_hits::total        435899534                       # number of demand (read+write) hits
system.cpu.dcache.overall_hits::cpu.data    435899534                       # number of overall hits
system.cpu.dcache.overall_hits::total       435899534                       # number of overall hits
system.cpu.dcache.ReadReq_misses::cpu.data      3106682                       # number of ReadReq misses
system.cpu.dcache.ReadReq_misses::total       3106682                       # number of ReadReq misses
system.cpu.dcache.WriteReq_misses::cpu.data        20369                       # number of WriteReq misses
system.cpu.dcache.WriteReq_misses::total        20369                       # number of WriteReq misses
system.cpu.dcache.demand_misses::cpu.data      3127051                       # number of demand (read+write) misses
system.cpu.dcache.demand_misses::total        3127051                       # number of demand (read+write) misses
system.cpu.dcache.overall_misses::cpu.data      3127051                       # number of overall misses
system.cpu.dcache.overall_misses::total       3127051                       # number of overall misses
system.cpu.dcache.ReadReq_miss_latency::cpu.data  75975166000                       # number of ReadReq miss cycles
system.cpu.dcache.ReadReq_miss_latency::total  75975166000                       # number of ReadReq miss cycles
system.cpu.dcache.WriteReq_miss_latency::cpu.data   1222545000                       # number of WriteReq miss cycles
system.cpu.dcache.WriteReq_miss_latency::total   1222545000                       # number of WriteReq miss cycles
system.cpu.dcache.demand_miss_latency::cpu.data  77197711000                       # number of demand (read+write) miss cycles
system.cpu.dcache.demand_miss_latency::total  77197711000                       # number of demand (read+write) miss cycles
system.cpu.dcache.overall_miss_latency::cpu.data  77197711000                       # number of overall miss cycles
system.cpu.dcache.overall_miss_latency::total  77197711000                       # number of overall miss cycles
system.cpu.dcache.ReadReq_accesses::cpu.data    382684107                       # number of ReadReq accesses(hits+misses)
system.cpu.dcache.ReadReq_accesses::total    382684107                       # number of ReadReq accesses(hits+misses)
system.cpu.dcache.WriteReq_accesses::cpu.data     56342478                       # number of WriteReq accesses(hits+misses)
system.cpu.dcache.WriteReq_accesses::total     56342478                       # number of WriteReq accesses(hits+misses)
system.cpu.dcache.demand_accesses::cpu.data    439026585                       # number of demand (read+write) accesses
system.cpu.dcache.demand_accesses::total    439026585                       # number of demand (read+write) accesses
system.cpu.dcache.overall_accesses::cpu.data    439026585                       # number of overall (read+write) accesses
system.cpu.dcache.overall_accesses::total    439026585                       # number of overall (read+write) accesses
system.cpu.dcache.ReadReq_miss_rate::cpu.data     0.008118                       # miss rate for ReadReq accesses
system.cpu.dcache.ReadReq_miss_rate::total     0.008118                       # miss rate for ReadReq accesses
system.cpu.dcache.WriteReq_miss_rate::cpu.data     0.000362                       # miss rate for WriteReq accesses
system.cpu.dcache.WriteReq_miss_rate::total     0.000362                       # miss rate for WriteReq accesses
system.cpu.dcache.demand_miss_rate::cpu.data     0.007123                       # miss rate for demand accesses
system.cpu.dcache.demand_miss_rate::total     0.007123                       # miss rate for demand accesses
system.cpu.dcache.overall_miss_rate::cpu.data     0.007123                       # miss rate for overall accesses
system.cpu.dcache.overall_miss_rate::total     0.007123                       # miss rate for overall accesses
system.cpu.dcache.ReadReq_avg_miss_latency::cpu.data 24455.404834                       # average ReadReq miss latency
system.cpu.dcache.ReadReq_avg_miss_latency::total 24455.404834                       # average ReadReq miss latency
system.cpu.dcache.WriteReq_avg_miss_latency::cpu.data 60019.883156                       # average WriteReq miss latency
system.cpu.dcache.WriteReq_avg_miss_latency::total 60019.883156                       # average WriteReq miss latency
system.cpu.dcache.demand_avg_miss_latency::cpu.data 24687.064906                       # average overall miss latency
system.cpu.dcache.demand_avg_miss_latency::total 24687.064906                       # average overall miss latency
system.cpu.dcache.overall_avg_miss_latency::cpu.data 24687.064906                       # average overall miss latency
system.cpu.dcache.overall_avg_miss_latency::total 24687.064906                       # average overall miss latency
system.cpu.dcache.blocked_cycles::no_mshrs            0                       # number of cycles access was blocked
system.cpu.dcache.blocked_cycles::no_targets            0                       # number of cycles access was blocked
system.cpu.dcache.blocked::no_mshrs                 0                       # number of cycles access was blocked
system.cpu.dcache.blocked::no_targets               0                       # number of cycles access was blocked
system.cpu.dcache.avg_blocked_cycles::no_mshrs          nan                       # average number of cycles each access was blocked
system.cpu.dcache.avg_blocked_cycles::no_targets          nan                       # average number of cycles each access was blocked
system.cpu.dcache.writebacks::writebacks      1433747                       # number of writebacks
system.cpu.dcache.writebacks::total           1433747                       # number of writebacks
system.cpu.dcache.ReadReq_mshr_misses::cpu.data      3106682                       # number of ReadReq MSHR misses
system.cpu.dcache.ReadReq_mshr_misses::total      3106682                       # number of ReadReq MSHR misses
system.cpu.dcache.WriteReq_mshr_misses::cpu.data        20369                       # number of WriteReq MSHR misses
system.cpu.dcache.WriteReq_mshr_misses::total        20369                       # number of WriteReq MSHR misses
system.cpu.dcache.demand_mshr_misses::cpu.data      3127051                       # number of demand (read+write) MSHR misses
system.cpu.dcache.demand_mshr_misses::total      3127051                       # number of demand (read+write) MSHR misses
system.cpu.dcache.overall_mshr_misses::cpu.data      3127051                       # number of overall MSHR misses
system.cpu.dcache.overall_mshr_misses::total      3127051                       # number of overall MSHR misses
system.cpu.dcache.ReadReq_mshr_miss_latency::cpu.data  72868484000                       # number of ReadReq MSHR miss cycles
system.cpu.dcache.ReadReq_mshr_miss_latency::total  72868484000                       # number of ReadReq MSHR miss cycles
system.cpu.dcache.WriteReq_mshr_miss_latency::cpu.data   1202176000                       # number of WriteReq MSHR miss cycles
system.cpu.dcache.WriteReq_mshr_miss_latency::total   1202176000                       # number of WriteReq MSHR miss cycles
system.cpu.dcache.demand_mshr_miss_latency::cpu.data  74070660000                       # number of demand (read+write) MSHR miss cycles
system.cpu.dcache.demand_mshr_miss_latency::total  74070660000                       # number of demand (read+write) MSHR miss cycles
system.cpu.dcache.overall_mshr_miss_latency::cpu.data  74070660000                       # number of overall MSHR miss cycles
system.cpu.dcache.overall_mshr_miss_latency::total  74070660000                       # number of overall MSHR miss cycles
system.cpu.dcache.ReadReq_mshr_miss_rate::cpu.data     0.008118                       # mshr miss rate for ReadReq accesses
system.cpu.dcache.ReadReq_mshr_miss_rate::total     0.008118                       # mshr miss rate for ReadReq accesses
system.cpu.dcache.WriteReq_mshr_miss_rate::cpu.data     0.000362                       # mshr miss rate for WriteReq accesses
system.cpu.dcache.WriteReq_mshr_miss_rate::total     0.000362                       # mshr miss rate for WriteReq accesses
system.cpu.dcache.demand_mshr_miss_rate::cpu.data     0.007123                       # mshr miss rate for demand accesses
system.cpu.dcache.demand_mshr_miss_rate::total     0.007123                       # mshr miss rate for demand accesses
system.cpu.dcache.overall_mshr_miss_rate::cpu.data     0.007123                       # mshr miss rate for overall accesses
system.cpu.dcache.overall_mshr_miss_rate::total     0.007123                       # mshr miss rate for overall accesses
system.cpu.dcache.ReadReq_avg_mshr_miss_latency::cpu.data 23455.404834                       # average ReadReq mshr miss latency
system.cpu.dcache.ReadReq_avg_mshr_miss_latency::total 23455.404834                       # average ReadReq mshr miss latency
system.cpu.dcache.WriteReq_avg_mshr_miss_latency::cpu.data 59019.883156                       # average WriteReq mshr miss latency
system.cpu.dcache.WriteReq_avg_mshr_miss_latency::total 59019.883156                       # average WriteReq mshr miss latency
system.cpu.dcache.demand_avg_mshr_miss_latency::cpu.data 23687.064906                       # average overall mshr miss latency
system.cpu.dcache.demand_avg_mshr_miss_latency::total 23687.064906                       # average overall mshr miss latency
system.cpu.dcache.overall_avg_mshr_miss_latency::cpu.data 23687.064906                       # average overall mshr miss latency
system.cpu.dcache.overall_avg_mshr_miss_latency::total 23687.064906                       # average overall mshr miss latency
system.cpu.dcache.replacements                3126539                       # number of replacements
system.cpu.dtb_walker_cache.tags.pwrStateResidencyTicks::UNDEFINED 1962611224000                       # Cumulative time (in ticks) in various power states
system.cpu.dtb_walker_cache.tags.tagsinuse            0                       # Cycle average of tags in use
system.cpu.dtb_walker_cache.tags.total_refs            0                       # Total number of references to valid blocks.
system.cpu.dtb_walker_cache.tags.sampled_refs            0                       # Sample count of references to valid blocks.
system.cpu.dtb_walker_cache.tags.avg_refs          nan                       # Average number of references to valid blocks.
system.cpu.dtb_walker_cache.tags.warmup_cycle            0                       # Cycle when the warmup percentage was hit.
system.cpu.dtb_walker_cache.tags.tag_accesses            0                       # Number of tag accesses
system.cpu.dtb_walker_cache.tags.data_accesses            0                       # Number of data accesses
system.cpu.dtb_walker_cache.pwrStateResidencyTicks::UNDEFINED 1962611224000                       # Cumulative time (in ticks) in various power states
system.cpu.dtb_walker_cache.blocked_cycles::no_mshrs            0                       # number of cycles access was blocked
system.cpu.dtb_walker_cache.blocked_cycles::no_targets            0                       # number of cycles access was blocked
system.cpu.dtb_walker_cache.blocked::no_mshrs            0                       # number of cycles access was blocked
system.cpu.dtb_walker_cache.blocked::no_targets            0                       # number of cycles access was blocked
system.cpu.dtb_walker_cache.avg_blocked_cycles::no_mshrs          nan                       # average number of cycles each access was blocked
system.cpu.dtb_walker_cache.avg_blocked_cycles::no_targets          nan                       # average number of cycles each access was blocked
system.cpu.dtb_walker_cache.replacements            0                       # number of replacements
system.cpu.icache.tags.pwrStateResidencyTicks::UNDEFINED 1962611224000                       # Cumulative time (in ticks) in various power states
system.cpu.icache.tags.tagsinuse           279.958968                       # Cycle average of tags in use
system.cpu.icache.tags.total_refs          1449455657                       # Total number of references to valid blocks.
system.cpu.icache.tags.sampled_refs               352                       # Sample count of references to valid blocks.
system.cpu.icache.tags.avg_refs          4117771.752841                       # Average number of references to valid blocks.
system.cpu.icache.tags.warmup_cycle            439000                       # Cycle when the warmup percentage was hit.
system.cpu.icache.tags.occ_blocks::cpu.inst   279.958968                       # Average occupied blocks per requestor
system.cpu.icache.tags.occ_percent::cpu.inst     0.546795                       # Average percentage of cache occupancy
system.cpu.icache.tags.occ_percent::total     0.546795                       # Average percentage of cache occupancy
system.cpu.icache.tags.occ_task_id_blocks::1024          306                       # Occupied blocks per task id
system.cpu.icache.tags.age_task_id_blocks_1024::0           15                       # Occupied blocks per task id
system.cpu.icache.tags.age_task_id_blocks_1024::1           24                       # Occupied blocks per task id
system.cpu.icache.tags.age_task_id_blocks_1024::4          267                       # Occupied blocks per task id
system.cpu.icache.tags.occ_task_id_percent::1024     0.597656                       # Percentage of cache occupancy per task id
system.cpu.icache.tags.tag_accesses        2898911666                       # Number of tag accesses
system.cpu.icache.tags.data_accesses       2898911666                       # Number of data accesses
system.cpu.icache.pwrStateResidencyTicks::UNDEFINED 1962611224000                       # Cumulative time (in ticks) in various power states
system.cpu.icache.ReadReq_hits::cpu.inst   1449455305                       # number of ReadReq hits
system.cpu.icache.ReadReq_hits::total      1449455305                       # number of ReadReq hits
system.cpu.icache.demand_hits::cpu.inst    1449455305                       # number of demand (read+write) hits
system.cpu.icache.demand_hits::total       1449455305                       # number of demand (read+write) hits
system.cpu.icache.overall_hits::cpu.inst   1449455305                       # number of overall hits
system.cpu.icache.overall_hits::total      1449455305                       # number of overall hits
system.cpu.icache.ReadReq_misses::cpu.inst          352                       # number of ReadReq misses
system.cpu.icache.ReadReq_misses::total           352                       # number of ReadReq misses
system.cpu.icache.demand_misses::cpu.inst          352                       # number of demand (read+write) misses
system.cpu.icache.demand_misses::total            352                       # number of demand (read+write) misses
system.cpu.icache.overall_misses::cpu.inst          352                       # number of overall misses
system.cpu.icache.overall_misses::total           352                       # number of overall misses
system.cpu.icache.ReadReq_miss_latency::cpu.inst     58677000                       # number of ReadReq miss cycles
system.cpu.icache.ReadReq_miss_latency::total     58677000                       # number of ReadReq miss cycles
system.cpu.icache.demand_miss_latency::cpu.inst     58677000                       # number of demand (read+write) miss cycles
system.cpu.icache.demand_miss_latency::total     58677000                       # number of demand (read+write) miss cycles
system.cpu.icache.overall_miss_latency::cpu.inst     58677000                       # number of overall miss cycles
system.cpu.icache.overall_miss_latency::total     58677000                       # number of overall miss cycles
system.cpu.icache.ReadReq_accesses::cpu.inst   1449455657                       # number of ReadReq accesses(hits+misses)
system.cpu.icache.ReadReq_accesses::total   1449455657                       # number of ReadReq accesses(hits+misses)
system.cpu.icache.demand_accesses::cpu.inst   1449455657                       # number of demand (read+write) accesses
system.cpu.icache.demand_accesses::total   1449455657                       # number of demand (read+write) accesses
system.cpu.icache.overall_accesses::cpu.inst   1449455657                       # number of overall (read+write) accesses
system.cpu.icache.overall_accesses::total   1449455657                       # number of overall (read+write) accesses
system.cpu.icache.ReadReq_miss_rate::cpu.inst     0.000000                       # miss rate for ReadReq accesses
system.cpu.icache.ReadReq_miss_rate::total     0.000000                       # miss rate for ReadReq accesses
system.cpu.icache.demand_miss_rate::cpu.inst     0.000000                       # miss rate for demand accesses
system.cpu.icache.demand_miss_rate::total     0.000000                       # miss rate for demand accesses
system.cpu.icache.overall_miss_rate::cpu.inst     0.000000                       # miss rate for overall accesses
system.cpu.icache.overall_miss_rate::total     0.000000                       # miss rate for overall accesses
system.cpu.icache.ReadReq_avg_miss_latency::cpu.inst 166696.022727                       # average ReadReq miss latency
system.cpu.icache.ReadReq_avg_miss_latency::total 166696.022727                       # average ReadReq miss latency
system.cpu.icache.demand_avg_miss_latency::cpu.inst 166696.022727                       # average overall miss latency
system.cpu.icache.demand_avg_miss_latency::total 166696.022727                       # average overall miss latency
system.cpu.icache.overall_avg_miss_latency::cpu.inst 166696.022727                       # average overall miss latency
system.cpu.icache.overall_avg_miss_latency::total 166696.022727                       # average overall miss latency
system.cpu.icache.blocked_cycles::no_mshrs            0                       # number of cycles access was blocked
system.cpu.icache.blocked_cycles::no_targets            0                       # number of cycles access was blocked
system.cpu.icache.blocked::no_mshrs                 0                       # number of cycles access was blocked
system.cpu.icache.blocked::no_targets               0                       # number of cycles access was blocked
system.cpu.icache.avg_blocked_cycles::no_mshrs          nan                       # average number of cycles each access was blocked
system.cpu.icache.avg_blocked_cycles::no_targets          nan                       # average number of cycles each access was blocked
system.cpu.icache.writebacks::writebacks           46                       # number of writebacks
system.cpu.icache.writebacks::total                46                       # number of writebacks
system.cpu.icache.ReadReq_mshr_misses::cpu.inst          352                       # number of ReadReq MSHR misses
system.cpu.icache.ReadReq_mshr_misses::total          352                       # number of ReadReq MSHR misses
system.cpu.icache.demand_mshr_misses::cpu.inst          352                       # number of demand (read+write) MSHR misses
system.cpu.icache.demand_mshr_misses::total          352                       # number of demand (read+write) MSHR misses
system.cpu.icache.overall_mshr_misses::cpu.inst          352                       # number of overall MSHR misses
system.cpu.icache.overall_mshr_misses::total          352                       # number of overall MSHR misses
system.cpu.icache.ReadReq_mshr_miss_latency::cpu.inst     58325000                       # number of ReadReq MSHR miss cycles
system.cpu.icache.ReadReq_mshr_miss_latency::total     58325000                       # number of ReadReq MSHR miss cycles
system.cpu.icache.demand_mshr_miss_latency::cpu.inst     58325000                       # number of demand (read+write) MSHR miss cycles
system.cpu.icache.demand_mshr_miss_latency::total     58325000                       # number of demand (read+write) MSHR miss cycles
system.cpu.icache.overall_mshr_miss_latency::cpu.inst     58325000                       # number of overall MSHR miss cycles
system.cpu.icache.overall_mshr_miss_latency::total     58325000                       # number of overall MSHR miss cycles
system.cpu.icache.ReadReq_mshr_miss_rate::cpu.inst     0.000000                       # mshr miss rate for ReadReq accesses
system.cpu.icache.ReadReq_mshr_miss_rate::total     0.000000                       # mshr miss rate for ReadReq accesses
system.cpu.icache.demand_mshr_miss_rate::cpu.inst     0.000000                       # mshr miss rate for demand accesses
system.cpu.icache.demand_mshr_miss_rate::total     0.000000                       # mshr miss rate for demand accesses
system.cpu.icache.overall_mshr_miss_rate::cpu.inst     0.000000                       # mshr miss rate for overall accesses
system.cpu.icache.overall_mshr_miss_rate::total     0.000000                       # mshr miss rate for overall accesses
system.cpu.icache.ReadReq_avg_mshr_miss_latency::cpu.inst 165696.022727                       # average ReadReq mshr miss latency
system.cpu.icache.ReadReq_avg_mshr_miss_latency::total 165696.022727                       # average ReadReq mshr miss latency
system.cpu.icache.demand_avg_mshr_miss_latency::cpu.inst 165696.022727                       # average overall mshr miss latency
system.cpu.icache.demand_avg_mshr_miss_latency::total 165696.022727                       # average overall mshr miss latency
system.cpu.icache.overall_avg_mshr_miss_latency::cpu.inst 165696.022727                       # average overall mshr miss latency
system.cpu.icache.overall_avg_mshr_miss_latency::total 165696.022727                       # average overall mshr miss latency
system.cpu.icache.replacements                     46                       # number of replacements
system.cpu.itb_walker_cache.tags.pwrStateResidencyTicks::UNDEFINED 1962611224000                       # Cumulative time (in ticks) in various power states
system.cpu.itb_walker_cache.tags.tagsinuse            0                       # Cycle average of tags in use
system.cpu.itb_walker_cache.tags.total_refs            0                       # Total number of references to valid blocks.
system.cpu.itb_walker_cache.tags.sampled_refs            0                       # Sample count of references to valid blocks.
system.cpu.itb_walker_cache.tags.avg_refs          nan                       # Average number of references to valid blocks.
system.cpu.itb_walker_cache.tags.warmup_cycle            0                       # Cycle when the warmup percentage was hit.
system.cpu.itb_walker_cache.tags.tag_accesses            0                       # Number of tag accesses
system.cpu.itb_walker_cache.tags.data_accesses            0                       # Number of data accesses
system.cpu.itb_walker_cache.pwrStateResidencyTicks::UNDEFINED 1962611224000                       # Cumulative time (in ticks) in various power states
system.cpu.itb_walker_cache.blocked_cycles::no_mshrs            0                       # number of cycles access was blocked
system.cpu.itb_walker_cache.blocked_cycles::no_targets            0                       # number of cycles access was blocked
system.cpu.itb_walker_cache.blocked::no_mshrs            0                       # number of cycles access was blocked
system.cpu.itb_walker_cache.blocked::no_targets            0                       # number of cycles access was blocked
system.cpu.itb_walker_cache.avg_blocked_cycles::no_mshrs          nan                       # average number of cycles each access was blocked
system.cpu.itb_walker_cache.avg_blocked_cycles::no_targets          nan                       # average number of cycles each access was blocked
system.cpu.itb_walker_cache.replacements            0                       # number of replacements
system.l2.tags.pwrStateResidencyTicks::UNDEFINED 1962611224000                       # Cumulative time (in ticks) in various power states
system.l2.tags.tagsinuse                  2046.627971                       # Cycle average of tags in use
system.l2.tags.total_refs                     6253988                       # Total number of references to valid blocks.
system.l2.tags.sampled_refs                   1710568                       # Sample count of references to valid blocks.
system.l2.tags.avg_refs                      3.656089                       # Average number of references to valid blocks.
system.l2.tags.warmup_cycle                    428500                       # Cycle when the warmup percentage was hit.
system.l2.tags.occ_blocks::writebacks        0.006894                       # Average occupied blocks per requestor
system.l2.tags.occ_blocks::cpu.inst          0.506808                       # Average occupied blocks per requestor
system.l2.tags.occ_blocks::cpu.data       2046.114270                       # Average occupied blocks per requestor
system.l2.tags.occ_percent::writebacks       0.000003                       # Average percentage of cache occupancy
system.l2.tags.occ_percent::cpu.inst         0.000247                       # Average percentage of cache occupancy
system.l2.tags.occ_percent::cpu.data         0.999079                       # Average percentage of cache occupancy
system.l2.tags.occ_percent::total            0.999330                       # Average percentage of cache occupancy
system.l2.tags.occ_task_id_blocks::1024          2048                       # Occupied blocks per task id
system.l2.tags.age_task_id_blocks_1024::0           35                       # Occupied blocks per task id
system.l2.tags.age_task_id_blocks_1024::1           70                       # Occupied blocks per task id
system.l2.tags.age_task_id_blocks_1024::2          799                       # Occupied blocks per task id
system.l2.tags.age_task_id_blocks_1024::3         1143                       # Occupied blocks per task id
system.l2.tags.age_task_id_blocks_1024::4            1                       # Occupied blocks per task id
system.l2.tags.occ_task_id_percent::1024            1                       # Percentage of cache occupancy per task id
system.l2.tags.tag_accesses                  51742472                       # Number of tag accesses
system.l2.tags.data_accesses                 51742472                       # Number of data accesses
system.l2.pwrStateResidencyTicks::UNDEFINED 1962611224000                       # Cumulative time (in ticks) in various power states
system.l2.WritebackDirty_hits::writebacks      1433747                       # number of WritebackDirty hits
system.l2.WritebackDirty_hits::total          1433747                       # number of WritebackDirty hits
system.l2.WritebackClean_hits::writebacks           46                       # number of WritebackClean hits
system.l2.WritebackClean_hits::total               46                       # number of WritebackClean hits
system.l2.ReadExReq_hits::cpu.data               3377                       # number of ReadExReq hits
system.l2.ReadExReq_hits::total                  3377                       # number of ReadExReq hits
system.l2.ReadSharedReq_hits::cpu.data        1413479                       # number of ReadSharedReq hits
system.l2.ReadSharedReq_hits::total           1413479                       # number of ReadSharedReq hits
system.l2.demand_hits::cpu.data               1416856                       # number of demand (read+write) hits
system.l2.demand_hits::total                  1416856                       # number of demand (read+write) hits
system.l2.overall_hits::cpu.data              1416856                       # number of overall hits
system.l2.overall_hits::total                 1416856                       # number of overall hits
system.l2.ReadExReq_misses::cpu.data            16992                       # number of ReadExReq misses
system.l2.ReadExReq_misses::total               16992                       # number of ReadExReq misses
system.l2.ReadCleanReq_misses::cpu.inst           352                       # number of ReadCleanReq misses
system.l2.ReadCleanReq_misses::total              352                       # number of ReadCleanReq misses
system.l2.ReadSharedReq_misses::cpu.data      1693203                       # number of ReadSharedReq misses
system.l2.ReadSharedReq_misses::total         1693203                       # number of ReadSharedReq misses
system.l2.demand_misses::cpu.inst                 352                       # number of demand (read+write) misses
system.l2.demand_misses::cpu.data             1710195                       # number of demand (read+write) misses
system.l2.demand_misses::total                1710547                       # number of demand (read+write) misses
system.l2.overall_misses::cpu.inst                352                       # number of overall misses
system.l2.overall_misses::cpu.data            1710195                       # number of overall misses
system.l2.overall_misses::total               1710547                       # number of overall misses
system.l2.ReadExReq_miss_latency::cpu.data   1136163500                       # number of ReadExReq miss cycles
system.l2.ReadExReq_miss_latency::total    1136163500                       # number of ReadExReq miss cycles
system.l2.ReadCleanReq_miss_latency::cpu.inst     57795500                       # number of ReadCleanReq miss cycles
system.l2.ReadCleanReq_miss_latency::total     57795500                       # number of ReadCleanReq miss cycles
system.l2.ReadSharedReq_miss_latency::cpu.data  53366930000                       # number of ReadSharedReq miss cycles
system.l2.ReadSharedReq_miss_latency::total  53366930000                       # number of ReadSharedReq miss cycles
system.l2.demand_miss_latency::cpu.inst      57795500                       # number of demand (read+write) miss cycles
system.l2.demand_miss_latency::cpu.data   54503093500                       # number of demand (read+write) miss cycles
system.l2.demand_miss_latency::total      54560889000                       # number of demand (read+write) miss cycles
system.l2.overall_miss_latency::cpu.inst     57795500                       # number of overall miss cycles
system.l2.overall_miss_latency::cpu.data  54503093500                       # number of overall miss cycles
system.l2.overall_miss_latency::total     54560889000                       # number of overall miss cycles
system.l2.WritebackDirty_accesses::writebacks      1433747                       # number of WritebackDirty accesses(hits+misses)
system.l2.WritebackDirty_accesses::total      1433747                       # number of WritebackDirty accesses(hits+misses)
system.l2.WritebackClean_accesses::writebacks           46                       # number of WritebackClean accesses(hits+misses)
system.l2.WritebackClean_accesses::total           46                       # number of WritebackClean accesses(hits+misses)
system.l2.ReadExReq_accesses::cpu.data          20369                       # number of ReadExReq accesses(hits+misses)
system.l2.ReadExReq_accesses::total             20369                       # number of ReadExReq accesses(hits+misses)
system.l2.ReadCleanReq_accesses::cpu.inst          352                       # number of ReadCleanReq accesses(hits+misses)
system.l2.ReadCleanReq_accesses::total            352                       # number of ReadCleanReq accesses(hits+misses)
system.l2.ReadSharedReq_accesses::cpu.data      3106682                       # number of ReadSharedReq accesses(hits+misses)
system.l2.ReadSharedReq_accesses::total       3106682                       # number of ReadSharedReq accesses(hits+misses)
system.l2.demand_accesses::cpu.inst               352                       # number of demand (read+write) accesses
system.l2.demand_accesses::cpu.data           3127051                       # number of demand (read+write) accesses
system.l2.demand_accesses::total              3127403                       # number of demand (read+write) accesses
system.l2.overall_accesses::cpu.inst              352                       # number of overall (read+write) accesses
system.l2.overall_accesses::cpu.data          3127051                       # number of overall (read+write) accesses
system.l2.overall_accesses::total             3127403                       # number of overall (read+write) accesses
system.l2.ReadExReq_miss_rate::cpu.data      0.834209                       # miss rate for ReadExReq accesses
system.l2.ReadExReq_miss_rate::total         0.834209                       # miss rate for ReadExReq accesses
system.l2.ReadCleanReq_miss_rate::cpu.inst            1                       # miss rate for ReadCleanReq accesses
system.l2.ReadCleanReq_miss_rate::total             1                       # miss rate for ReadCleanReq accesses
system.l2.ReadSharedReq_miss_rate::cpu.data     0.545020                       # miss rate for ReadSharedReq accesses
system.l2.ReadSharedReq_miss_rate::total     0.545020                       # miss rate for ReadSharedReq accesses
system.l2.demand_miss_rate::cpu.inst                1                       # miss rate for demand accesses
system.l2.demand_miss_rate::cpu.data         0.546903                       # miss rate for demand accesses
system.l2.demand_miss_rate::total            0.546954                       # miss rate for demand accesses
system.l2.overall_miss_rate::cpu.inst               1                       # miss rate for overall accesses
system.l2.overall_miss_rate::cpu.data        0.546903                       # miss rate for overall accesses
system.l2.overall_miss_rate::total           0.546954                       # miss rate for overall accesses
system.l2.ReadExReq_avg_miss_latency::cpu.data 66864.612759                       # average ReadExReq miss latency
system.l2.ReadExReq_avg_miss_latency::total 66864.612759                       # average ReadExReq miss latency
system.l2.ReadCleanReq_avg_miss_latency::cpu.inst 164191.761364                       # average ReadCleanReq miss latency
system.l2.ReadCleanReq_avg_miss_latency::total 164191.761364                       # average ReadCleanReq miss latency
system.l2.ReadSharedReq_avg_miss_latency::cpu.data 31518.329462                       # average ReadSharedReq miss latency
system.l2.ReadSharedReq_avg_miss_latency::total 31518.329462                       # average ReadSharedReq miss latency
system.l2.demand_avg_miss_latency::cpu.inst 164191.761364                       # average overall miss latency
system.l2.demand_avg_miss_latency::cpu.data 31869.519850                       # average overall miss latency
system.l2.demand_avg_miss_latency::total 31896.749402                       # average overall miss latency
system.l2.overall_avg_miss_latency::cpu.inst 164191.761364                       # average overall miss latency
system.l2.overall_avg_miss_latency::cpu.data 31869.519850                       # average overall miss latency
system.l2.overall_avg_miss_latency::total 31896.749402                       # average overall miss latency
system.l2.blocked_cycles::no_mshrs                  0                       # number of cycles access was blocked
system.l2.blocked_cycles::no_targets                0                       # number of cycles access was blocked
system.l2.blocked::no_mshrs                         0                       # number of cycles access was blocked
system.l2.blocked::no_targets                       0                       # number of cycles access was blocked
system.l2.avg_blocked_cycles::no_mshrs            nan                       # average number of cycles each access was blocked
system.l2.avg_blocked_cycles::no_targets          nan                       # average number of cycles each access was blocked
system.l2.writebacks::writebacks              1708134                       # number of writebacks
system.l2.writebacks::total                   1708134                       # number of writebacks
system.l2.ReadExReq_mshr_misses::cpu.data        16992                       # number of ReadExReq MSHR misses
system.l2.ReadExReq_mshr_misses::total          16992                       # number of ReadExReq MSHR misses
system.l2.ReadCleanReq_mshr_misses::cpu.inst          352                       # number of ReadCleanReq MSHR misses
system.l2.ReadCleanReq_mshr_misses::total          352                       # number of ReadCleanReq MSHR misses
system.l2.ReadSharedReq_mshr_misses::cpu.data      1693203                       # number of ReadSharedReq MSHR misses
system.l2.ReadSharedReq_mshr_misses::total      1693203                       # number of ReadSharedReq MSHR misses
system.l2.demand_mshr_misses::cpu.inst            352                       # number of demand (read+write) MSHR misses
system.l2.demand_mshr_misses::cpu.data        1710195                       # number of demand (read+write) MSHR misses
system.l2.demand_mshr_misses::total           1710547                       # number of demand (read+write) MSHR misses
system.l2.overall_mshr_misses::cpu.inst           352                       # number of overall MSHR misses
system.l2.overall_mshr_misses::cpu.data       1710195                       # number of overall MSHR misses
system.l2.overall_mshr_misses::total          1710547                       # number of overall MSHR misses
system.l2.ReadExReq_mshr_miss_latency::cpu.data    966243500                       # number of ReadExReq MSHR miss cycles
system.l2.ReadExReq_mshr_miss_latency::total    966243500                       # number of ReadExReq MSHR miss cycles
system.l2.ReadCleanReq_mshr_miss_latency::cpu.inst     54275500                       # number of ReadCleanReq MSHR miss cycles
system.l2.ReadCleanReq_mshr_miss_latency::total     54275500                       # number of ReadCleanReq MSHR miss cycles
system.l2.ReadSharedReq_mshr_miss_latency::cpu.data  36434900000                       # number of ReadSharedReq MSHR miss cycles
system.l2.ReadSharedReq_mshr_miss_latency::total  36434900000                       # number of ReadSharedReq MSHR miss cycles
system.l2.demand_mshr_miss_latency::cpu.inst     54275500                       # number of demand (read+write) MSHR miss cycles
system.l2.demand_mshr_miss_latency::cpu.data  37401143500                       # number of demand (read+write) MSHR miss cycles
system.l2.demand_mshr_miss_latency::total  37455419000                       # number of demand (read+write) MSHR miss cycles
system.l2.overall_mshr_miss_latency::cpu.inst     54275500                       # number of overall MSHR miss cycles
system.l2.overall_mshr_miss_latency::cpu.data  37401143500                       # number of overall MSHR miss cycles
system.l2.overall_mshr_miss_latency::total  37455419000                       # number of overall MSHR miss cycles
system.l2.ReadExReq_mshr_miss_rate::cpu.data     0.834209                       # mshr miss rate for ReadExReq accesses
system.l2.ReadExReq_mshr_miss_rate::total     0.834209                       # mshr miss rate for ReadExReq accesses
system.l2.ReadCleanReq_mshr_miss_rate::cpu.inst            1                       # mshr miss rate for ReadCleanReq accesses
system.l2.ReadCleanReq_mshr_miss_rate::total            1                       # mshr miss rate for ReadCleanReq accesses
system.l2.ReadSharedReq_mshr_miss_rate::cpu.data     0.545020                       # mshr miss rate for ReadSharedReq accesses
system.l2.ReadSharedReq_mshr_miss_rate::total     0.545020                       # mshr miss rate for ReadSharedReq accesses
system.l2.demand_mshr_miss_rate::cpu.inst            1                       # mshr miss rate for demand accesses
system.l2.demand_mshr_miss_rate::cpu.data     0.546903                       # mshr miss rate for demand accesses
system.l2.demand_mshr_miss_rate::total       0.546954                       # mshr miss rate for demand accesses
system.l2.overall_mshr_miss_rate::cpu.inst            1                       # mshr miss rate for overall accesses
system.l2.overall_mshr_miss_rate::cpu.data     0.546903                       # mshr miss rate for overall accesses
system.l2.overall_mshr_miss_rate::total      0.546954                       # mshr miss rate for overall accesses
system.l2.ReadExReq_avg_mshr_miss_latency::cpu.data 56864.612759                       # average ReadExReq mshr miss latency
system.l2.ReadExReq_avg_mshr_miss_latency::total 56864.612759                       # average ReadExReq mshr miss latency
system.l2.ReadCleanReq_avg_mshr_miss_latency::cpu.inst 154191.761364                       # average ReadCleanReq mshr miss latency
system.l2.ReadCleanReq_avg_mshr_miss_latency::total 154191.761364                       # average ReadCleanReq mshr miss latency
system.l2.ReadSharedReq_avg_mshr_miss_latency::cpu.data 21518.329462                       # average ReadSharedReq mshr miss latency
system.l2.ReadSharedReq_avg_mshr_miss_latency::total 21518.329462                       # average ReadSharedReq mshr miss latency
system.l2.demand_avg_mshr_miss_latency::cpu.inst 154191.761364                       # average overall mshr miss latency
system.l2.demand_avg_mshr_miss_latency::cpu.data 21869.519850                       # average overall mshr miss latency
system.l2.demand_avg_mshr_miss_latency::total 21896.749402                       # average overall mshr miss latency
system.l2.overall_avg_mshr_miss_latency::cpu.inst 154191.761364                       # average overall mshr miss latency
system.l2.overall_avg_mshr_miss_latency::cpu.data 21869.519850                       # average overall mshr miss latency
system.l2.overall_avg_mshr_miss_latency::total 21896.749402                       # average overall mshr miss latency
system.l2.replacements                        1708520                       # number of replacements
system.l3.tags.pwrStateResidencyTicks::UNDEFINED 1962611224000                       # Cumulative time (in ticks) in various power states
system.l3.tags.tagsinuse                 14219.312101                       # Cycle average of tags in use
system.l3.tags.total_refs                     3418777                       # Total number of references to valid blocks.
system.l3.tags.sampled_refs                     17454                       # Sample count of references to valid blocks.
system.l3.tags.avg_refs                    195.873553                       # Average number of references to valid blocks.
system.l3.tags.warmup_cycle                    418000                       # Cycle when the warmup percentage was hit.
system.l3.tags.occ_blocks::cpu.inst        139.046771                       # Average occupied blocks per requestor
system.l3.tags.occ_blocks::cpu.data      14080.265330                       # Average occupied blocks per requestor
system.l3.tags.occ_percent::cpu.inst         0.008487                       # Average percentage of cache occupancy
system.l3.tags.occ_percent::cpu.data         0.859391                       # Average percentage of cache occupancy
system.l3.tags.occ_percent::total            0.867878                       # Average percentage of cache occupancy
system.l3.tags.occ_task_id_blocks::1024         16384                       # Occupied blocks per task id
system.l3.tags.age_task_id_blocks_1024::0           25                       # Occupied blocks per task id
system.l3.tags.age_task_id_blocks_1024::1           39                       # Occupied blocks per task id
system.l3.tags.age_task_id_blocks_1024::2            2                       # Occupied blocks per task id
system.l3.tags.age_task_id_blocks_1024::3           26                       # Occupied blocks per task id
system.l3.tags.age_task_id_blocks_1024::4        16292                       # Occupied blocks per task id
system.l3.tags.occ_task_id_percent::1024            1                       # Percentage of cache occupancy per task id
system.l3.tags.tag_accesses                  13692562                       # Number of tag accesses
system.l3.tags.data_accesses                 13692562                       # Number of data accesses
system.l3.pwrStateResidencyTicks::UNDEFINED 1962611224000                       # Cumulative time (in ticks) in various power states
system.l3.WritebackDirty_hits::writebacks      1708133                       # number of WritebackDirty hits
system.l3.WritebackDirty_hits::total          1708133                       # number of WritebackDirty hits
system.l3.ReadSharedReq_hits::cpu.data        1693093                       # number of ReadSharedReq hits
system.l3.ReadSharedReq_hits::total           1693093                       # number of ReadSharedReq hits
system.l3.demand_hits::cpu.data               1693093                       # number of demand (read+write) hits
system.l3.demand_hits::total                  1693093                       # number of demand (read+write) hits
system.l3.overall_hits::cpu.data              1693093                       # number of overall hits
system.l3.overall_hits::total                 1693093                       # number of overall hits
system.l3.ReadExReq_misses::cpu.data            16992                       # number of ReadExReq misses
system.l3.ReadExReq_misses::total               16992                       # number of ReadExReq misses
system.l3.ReadSharedReq_misses::cpu.inst          352                       # number of ReadSharedReq misses
system.l3.ReadSharedReq_misses::cpu.data          110                       # number of ReadSharedReq misses
system.l3.ReadSharedReq_misses::total             462                       # number of ReadSharedReq misses
system.l3.demand_misses::cpu.inst                 352                       # number of demand (read+write) misses
system.l3.demand_misses::cpu.data               17102                       # number of demand (read+write) misses
system.l3.demand_misses::total                  17454                       # number of demand (read+write) misses
system.l3.overall_misses::cpu.inst                352                       # number of overall misses
system.l3.overall_misses::cpu.data              17102                       # number of overall misses
system.l3.overall_misses::total                 17454                       # number of overall misses
system.l3.ReadExReq_miss_latency::cpu.data    779331500                       # number of ReadExReq miss cycles
system.l3.ReadExReq_miss_latency::total     779331500                       # number of ReadExReq miss cycles
system.l3.ReadSharedReq_miss_latency::cpu.inst     50403500                       # number of ReadSharedReq miss cycles
system.l3.ReadSharedReq_miss_latency::cpu.data     32190500                       # number of ReadSharedReq miss cycles
system.l3.ReadSharedReq_miss_latency::total     82594000                       # number of ReadSharedReq miss cycles
system.l3.demand_miss_latency::cpu.inst      50403500                       # number of demand (read+write) miss cycles
system.l3.demand_miss_latency::cpu.data     811522000                       # number of demand (read+write) miss cycles
system.l3.demand_miss_latency::total        861925500                       # number of demand (read+write) miss cycles
system.l3.overall_miss_latency::cpu.inst     50403500                       # number of overall miss cycles
system.l3.overall_miss_latency::cpu.data    811522000                       # number of overall miss cycles
system.l3.overall_miss_latency::total       861925500                       # number of overall miss cycles
system.l3.WritebackDirty_accesses::writebacks      1708133                       # number of WritebackDirty accesses(hits+misses)
system.l3.WritebackDirty_accesses::total      1708133                       # number of WritebackDirty accesses(hits+misses)
system.l3.ReadExReq_accesses::cpu.data          16992                       # number of ReadExReq accesses(hits+misses)
system.l3.ReadExReq_accesses::total             16992                       # number of ReadExReq accesses(hits+misses)
system.l3.ReadSharedReq_accesses::cpu.inst          352                       # number of ReadSharedReq accesses(hits+misses)
system.l3.ReadSharedReq_accesses::cpu.data      1693203                       # number of ReadSharedReq accesses(hits+misses)
system.l3.ReadSharedReq_accesses::total       1693555                       # number of ReadSharedReq accesses(hits+misses)
system.l3.demand_accesses::cpu.inst               352                       # number of demand (read+write) accesses
system.l3.demand_accesses::cpu.data           1710195                       # number of demand (read+write) accesses
system.l3.demand_accesses::total              1710547                       # number of demand (read+write) accesses
system.l3.overall_accesses::cpu.inst              352                       # number of overall (read+write) accesses
system.l3.overall_accesses::cpu.data          1710195                       # number of overall (read+write) accesses
system.l3.overall_accesses::total             1710547                       # number of overall (read+write) accesses
system.l3.ReadExReq_miss_rate::cpu.data             1                       # miss rate for ReadExReq accesses
system.l3.ReadExReq_miss_rate::total                1                       # miss rate for ReadExReq accesses
system.l3.ReadSharedReq_miss_rate::cpu.inst            1                       # miss rate for ReadSharedReq accesses
system.l3.ReadSharedReq_miss_rate::cpu.data     0.000065                       # miss rate for ReadSharedReq accesses
system.l3.ReadSharedReq_miss_rate::total     0.000273                       # miss rate for ReadSharedReq accesses
system.l3.demand_miss_rate::cpu.inst                1                       # miss rate for demand accesses
system.l3.demand_miss_rate::cpu.data         0.010000                       # miss rate for demand accesses
system.l3.demand_miss_rate::total            0.010204                       # miss rate for demand accesses
system.l3.overall_miss_rate::cpu.inst               1                       # miss rate for overall accesses
system.l3.overall_miss_rate::cpu.data        0.010000                       # miss rate for overall accesses
system.l3.overall_miss_rate::total           0.010204                       # miss rate for overall accesses
system.l3.ReadExReq_avg_miss_latency::cpu.data 45864.612759                       # average ReadExReq miss latency
system.l3.ReadExReq_avg_miss_latency::total 45864.612759                       # average ReadExReq miss latency
system.l3.ReadSharedReq_avg_miss_latency::cpu.inst 143191.761364                       # average ReadSharedReq miss latency
system.l3.ReadSharedReq_avg_miss_latency::cpu.data 292640.909091                       # average ReadSharedReq miss latency
system.l3.ReadSharedReq_avg_miss_latency::total 178774.891775                       # average ReadSharedReq miss latency
system.l3.demand_avg_miss_latency::cpu.inst 143191.761364                       # average overall miss latency
system.l3.demand_avg_miss_latency::cpu.data 47451.876973                       # average overall miss latency
system.l3.demand_avg_miss_latency::total 49382.691647                       # average overall miss latency
system.l3.overall_avg_miss_latency::cpu.inst 143191.761364                       # average overall miss latency
system.l3.overall_avg_miss_latency::cpu.data 47451.876973                       # average overall miss latency
system.l3.overall_avg_miss_latency::total 49382.691647                       # average overall miss latency
system.l3.blocked_cycles::no_mshrs                  0                       # number of cycles access was blocked
system.l3.blocked_cycles::no_targets                0                       # number of cycles access was blocked
system.l3.blocked::no_mshrs                         0                       # number of cycles access was blocked
system.l3.blocked::no_targets                       0                       # number of cycles access was blocked
system.l3.avg_blocked_cycles::no_mshrs            nan                       # average number of cycles each access was blocked
system.l3.avg_blocked_cycles::no_targets          nan                       # average number of cycles each access was blocked
system.l3.writebacks::writebacks                  693                       # number of writebacks
system.l3.writebacks::total                       693                       # number of writebacks
system.l3.ReadExReq_mshr_misses::cpu.data        16992                       # number of ReadExReq MSHR misses
system.l3.ReadExReq_mshr_misses::total          16992                       # number of ReadExReq MSHR misses
system.l3.ReadSharedReq_mshr_misses::cpu.inst          352                       # number of ReadSharedReq MSHR misses
system.l3.ReadSharedReq_mshr_misses::cpu.data          110                       # number of ReadSharedReq MSHR misses
system.l3.ReadSharedReq_mshr_misses::total          462                       # number of ReadSharedReq MSHR misses
system.l3.demand_mshr_misses::cpu.inst            352                       # number of demand (read+write) MSHR misses
system.l3.demand_mshr_misses::cpu.data          17102                       # number of demand (read+write) MSHR misses
system.l3.demand_mshr_misses::total             17454                       # number of demand (read+write) MSHR misses
system.l3.overall_mshr_misses::cpu.inst           352                       # number of overall MSHR misses
system.l3.overall_mshr_misses::cpu.data         17102                       # number of overall MSHR misses
system.l3.overall_mshr_misses::total            17454                       # number of overall MSHR misses
system.l3.ReadExReq_mshr_miss_latency::cpu.data    609411500                       # number of ReadExReq MSHR miss cycles
system.l3.ReadExReq_mshr_miss_latency::total    609411500                       # number of ReadExReq MSHR miss cycles
system.l3.ReadSharedReq_mshr_miss_latency::cpu.inst     46883500                       # number of ReadSharedReq MSHR miss cycles
system.l3.ReadSharedReq_mshr_miss_latency::cpu.data     31090500                       # number of ReadSharedReq MSHR miss cycles
system.l3.ReadSharedReq_mshr_miss_latency::total     77974000                       # number of ReadSharedReq MSHR miss cycles
system.l3.demand_mshr_miss_latency::cpu.inst     46883500                       # number of demand (read+write) MSHR miss cycles
system.l3.demand_mshr_miss_latency::cpu.data    640502000                       # number of demand (read+write) MSHR miss cycles
system.l3.demand_mshr_miss_latency::total    687385500                       # number of demand (read+write) MSHR miss cycles
system.l3.overall_mshr_miss_latency::cpu.inst     46883500                       # number of overall MSHR miss cycles
system.l3.overall_mshr_miss_latency::cpu.data    640502000                       # number of overall MSHR miss cycles
system.l3.overall_mshr_miss_latency::total    687385500                       # number of overall MSHR miss cycles
system.l3.ReadExReq_mshr_miss_rate::cpu.data            1                       # mshr miss rate for ReadExReq accesses
system.l3.ReadExReq_mshr_miss_rate::total            1                       # mshr miss rate for ReadExReq accesses
system.l3.ReadSharedReq_mshr_miss_rate::cpu.inst            1                       # mshr miss rate for ReadSharedReq accesses
system.l3.ReadSharedReq_mshr_miss_rate::cpu.data     0.000065                       # mshr miss rate for ReadSharedReq accesses
system.l3.ReadSharedReq_mshr_miss_rate::total     0.000273                       # mshr miss rate for ReadSharedReq accesses
system.l3.demand_mshr_miss_rate::cpu.inst            1                       # mshr miss rate for demand accesses
system.l3.demand_mshr_miss_rate::cpu.data     0.010000                       # mshr miss rate for demand accesses
system.l3.demand_mshr_miss_rate::total       0.010204                       # mshr miss rate for demand accesses
system.l3.overall_mshr_miss_rate::cpu.inst            1                       # mshr miss rate for overall accesses
system.l3.overall_mshr_miss_rate::cpu.data     0.010000                       # mshr miss rate for overall accesses
system.l3.overall_mshr_miss_rate::total      0.010204                       # mshr miss rate for overall accesses
system.l3.ReadExReq_avg_mshr_miss_latency::cpu.data 35864.612759                       # average ReadExReq mshr miss latency
system.l3.ReadExReq_avg_mshr_miss_latency::total 35864.612759                       # average ReadExReq mshr miss latency
system.l3.ReadSharedReq_avg_mshr_miss_latency::cpu.inst 133191.761364                       # average ReadSharedReq mshr miss latency
system.l3.ReadSharedReq_avg_mshr_miss_latency::cpu.data 282640.909091                       # average ReadSharedReq mshr miss latency
system.l3.ReadSharedReq_avg_mshr_miss_latency::total 168774.891775                       # average ReadSharedReq mshr miss latency
system.l3.demand_avg_mshr_miss_latency::cpu.inst 133191.761364                       # average overall mshr miss latency
system.l3.demand_avg_mshr_miss_latency::cpu.data 37451.876973                       # average overall mshr miss latency
system.l3.demand_avg_mshr_miss_latency::total 39382.691647                       # average overall mshr miss latency
system.l3.overall_avg_mshr_miss_latency::cpu.inst 133191.761364                       # average overall mshr miss latency
system.l3.overall_avg_mshr_miss_latency::cpu.data 37451.876973                       # average overall mshr miss latency
system.l3.overall_avg_mshr_miss_latency::total 39382.691647                       # average overall mshr miss latency
system.l3.replacements                           1070                       # number of replacements
system.membus.snoop_filter.tot_requests         18243                       # Total number of requests made to the snoop filter.
system.membus.snoop_filter.hit_single_requests          789                       # Number of requests hitting in the snoop filter with a single holder of the requested data.
system.membus.snoop_filter.hit_multi_requests            0                       # Number of requests hitting in the snoop filter with multiple (>1) holders of the requested data.
system.membus.snoop_filter.tot_snoops               0                       # Total number of snoops made to the snoop filter.
system.membus.snoop_filter.hit_single_snoops            0                       # Number of snoops hitting in the snoop filter with a single holder of the requested data.
system.membus.snoop_filter.hit_multi_snoops            0                       # Number of snoops hitting in the snoop filter with multiple (>1) holders of the requested data.
system.membus.pwrStateResidencyTicks::UNDEFINED 1962611224000                       # Cumulative time (in ticks) in various power states
system.membus.trans_dist::ReadResp                462                       # Transaction distribution
system.membus.trans_dist::WritebackDirty          693                       # Transaction distribution
system.membus.trans_dist::CleanEvict               96                       # Transaction distribution
system.membus.trans_dist::ReadExReq             16992                       # Transaction distribution
system.membus.trans_dist::ReadExResp            16992                       # Transaction distribution
system.membus.trans_dist::ReadSharedReq           462                       # Transaction distribution
system.membus.pkt_count_system.l3.mem_side::system.mem_ctrls.port        35697                       # Packet count per connected master and slave (bytes)
system.membus.pkt_count_system.l3.mem_side::total        35697                       # Packet count per connected master and slave (bytes)
system.membus.pkt_count::total                  35697                       # Packet count per connected master and slave (bytes)
system.membus.pkt_size_system.l3.mem_side::system.mem_ctrls.port      1161408                       # Cumulative packet size per connected master and slave (bytes)
system.membus.pkt_size_system.l3.mem_side::total      1161408                       # Cumulative packet size per connected master and slave (bytes)
system.membus.pkt_size::total                 1161408                       # Cumulative packet size per connected master and slave (bytes)
system.membus.snoops                                0                       # Total snoops (count)
system.membus.snoopTraffic                          0                       # Total snoop traffic (bytes)
system.membus.snoop_fanout::samples             17454                       # Request fanout histogram
system.membus.snoop_fanout::mean                    0                       # Request fanout histogram
system.membus.snoop_fanout::stdev                   0                       # Request fanout histogram
system.membus.snoop_fanout::underflows              0      0.00%      0.00% # Request fanout histogram
system.membus.snoop_fanout::0                   17454    100.00%    100.00% # Request fanout histogram
system.membus.snoop_fanout::1                       0      0.00%    100.00% # Request fanout histogram
system.membus.snoop_fanout::overflows               0      0.00%    100.00% # Request fanout histogram
system.membus.snoop_fanout::min_value               0                       # Request fanout histogram
system.membus.snoop_fanout::max_value               0                       # Request fanout histogram
system.membus.snoop_fanout::total               17454                       # Request fanout histogram
system.membus.reqLayer2.occupancy            21018500                       # Layer occupancy (ticks)
system.membus.reqLayer2.utilization               0.0                       # Layer utilization (%)
system.membus.respLayer1.occupancy           87273500                       # Layer occupancy (ticks)
system.membus.respLayer1.utilization              0.0                       # Layer utilization (%)
system.tol2bus.snoop_filter.tot_requests      6253988                       # Total number of requests made to the snoop filter.
system.tol2bus.snoop_filter.hit_single_requests      3126585                       # Number of requests hitting in the snoop filter with a single holder of the requested data.
system.tol2bus.snoop_filter.hit_multi_requests            0                       # Number of requests hitting in the snoop filter with multiple (>1) holders of the requested data.
system.tol2bus.snoop_filter.tot_snoops            570                       # Total number of snoops made to the snoop filter.
system.tol2bus.snoop_filter.hit_single_snoops          570                       # Number of snoops hitting in the snoop filter with a single holder of the requested data.
system.tol2bus.snoop_filter.hit_multi_snoops            0                       # Number of snoops hitting in the snoop filter with multiple (>1) holders of the requested data.
system.tol2bus.pwrStateResidencyTicks::UNDEFINED 1962611224000                       # Cumulative time (in ticks) in various power states
system.tol2bus.trans_dist::ReadResp           3107034                       # Transaction distribution
system.tol2bus.trans_dist::WritebackDirty      3142574                       # Transaction distribution
system.tol2bus.trans_dist::WritebackClean           46                       # Transaction distribution
system.tol2bus.trans_dist::CleanEvict         1693555                       # Transaction distribution
system.tol2bus.trans_dist::ReadExReq            20369                       # Transaction distribution
system.tol2bus.trans_dist::ReadExResp           20369                       # Transaction distribution
system.tol2bus.trans_dist::ReadCleanReq           352                       # Transaction distribution
system.tol2bus.trans_dist::ReadSharedReq      3106682                       # Transaction distribution
system.tol2bus.pkt_count_system.cpu.icache.mem_side::system.l2.cpu_side          750                       # Packet count per connected master and slave (bytes)
system.tol2bus.pkt_count_system.cpu.dcache.mem_side::system.l2.cpu_side      9380641                       # Packet count per connected master and slave (bytes)
system.tol2bus.pkt_count::total               9381391                       # Packet count per connected master and slave (bytes)
system.tol2bus.pkt_size_system.cpu.icache.mem_side::system.l2.cpu_side        25472                       # Cumulative packet size per connected master and slave (bytes)
system.tol2bus.pkt_size_system.cpu.dcache.mem_side::system.l2.cpu_side    291891072                       # Cumulative packet size per connected master and slave (bytes)
system.tol2bus.pkt_size::total              291916544                       # Cumulative packet size per connected master and slave (bytes)
system.tol2bus.snoops                         1709590                       # Total snoops (count)
system.tol2bus.snoopTraffic                 109364928                       # Total snoop traffic (bytes)
system.tol2bus.snoop_fanout::samples          4836993                       # Request fanout histogram
system.tol2bus.snoop_fanout::mean            0.000118                       # Request fanout histogram
system.tol2bus.snoop_fanout::stdev           0.010855                       # Request fanout histogram
system.tol2bus.snoop_fanout::underflows             0      0.00%      0.00% # Request fanout histogram
system.tol2bus.snoop_fanout::0                4836423     99.99%     99.99% # Request fanout histogram
system.tol2bus.snoop_fanout::1                    570      0.01%    100.00% # Request fanout histogram
system.tol2bus.snoop_fanout::2                      0      0.00%    100.00% # Request fanout histogram
system.tol2bus.snoop_fanout::3                      0      0.00%    100.00% # Request fanout histogram
system.tol2bus.snoop_fanout::4                      0      0.00%    100.00% # Request fanout histogram
system.tol2bus.snoop_fanout::overflows              0      0.00%    100.00% # Request fanout histogram
system.tol2bus.snoop_fanout::min_value              0                       # Request fanout histogram
system.tol2bus.snoop_fanout::max_value              1                       # Request fanout histogram
system.tol2bus.snoop_fanout::total            4836993                       # Request fanout histogram
system.tol2bus.reqLayer0.occupancy         4560787000                       # Layer occupancy (ticks)
system.tol2bus.reqLayer0.utilization              0.2                       # Layer utilization (%)
system.tol2bus.respLayer0.occupancy            528000                       # Layer occupancy (ticks)
system.tol2bus.respLayer0.utilization             0.0                       # Layer utilization (%)
system.tol2bus.respLayer1.occupancy        4690576500                       # Layer occupancy (ticks)
system.tol2bus.respLayer1.utilization             0.2                       # Layer utilization (%)
system.tol3bus.pwrStateResidencyTicks::UNDEFINED 1962611224000                       # Cumulative time (in ticks) in various power states
system.tol3bus.trans_dist::ReadResp           1693555                       # Transaction distribution
system.tol3bus.trans_dist::WritebackDirty      1708826                       # Transaction distribution
system.tol3bus.trans_dist::CleanEvict             474                       # Transaction distribution
system.tol3bus.trans_dist::ReadExReq            16992                       # Transaction distribution
system.tol3bus.trans_dist::ReadExResp           16992                       # Transaction distribution
system.tol3bus.trans_dist::ReadSharedReq      1693555                       # Transaction distribution
system.tol3bus.pkt_count_system.l2.mem_side::system.l3.cpu_side      5129324                       # Packet count per connected master and slave (bytes)
system.tol3bus.pkt_size_system.l2.mem_side::system.l3.cpu_side    218795520                       # Cumulative packet size per connected master and slave (bytes)
system.tol3bus.snoops                            1070                       # Total snoops (count)
system.tol3bus.snoopTraffic                     44352                       # Total snoop traffic (bytes)
system.tol3bus.snoop_fanout::samples          3419847                       # Request fanout histogram
system.tol3bus.snoop_fanout::mean            0.000313                       # Request fanout histogram
system.tol3bus.snoop_fanout::stdev           0.017686                       # Request fanout histogram
system.tol3bus.snoop_fanout::underflows             0      0.00%      0.00% # Request fanout histogram
system.tol3bus.snoop_fanout::0                3418777     99.97%     99.97% # Request fanout histogram
system.tol3bus.snoop_fanout::1                   1070      0.03%    100.00% # Request fanout histogram
system.tol3bus.snoop_fanout::overflows              0      0.00%    100.00% # Request fanout histogram
system.tol3bus.snoop_fanout::min_value              0                       # Request fanout histogram
system.tol3bus.snoop_fanout::max_value              1                       # Request fanout histogram
system.tol3bus.snoop_fanout::total            3419847                       # Request fanout histogram
system.tol3bus.reqLayer0.occupancy         3417521500                       # Layer occupancy (ticks)
system.tol3bus.reqLayer0.utilization              0.2                       # Layer utilization (%)
system.tol3bus.respLayer0.occupancy        2565820500                       # Layer occupancy (ticks)
system.tol3bus.respLayer0.utilization             0.1                       # Layer utilization (%)

---------- End Simulation Statistics   ----------
