gem5 Simulator System.  http://gem5.org
gem5 is copyrighted software; use the --copyright option for details.

gem5 compiled Jun 26 2021 15:21:36
gem5 started Jun 28 2021 03:13:39
gem5 executing on a8294a2963ff, pid 251
command line: /home/user/project/gem5/build/X86/gem5.opt --debug-flags=Cache /home/user/project/gem5/configs/example/se.py -c /home/user/project/gem5/tests/test-progs/hello/bin/x86/linux/hello --cpu-type=TimingSimpleCPU --caches --l2cache --l3cache --l3_assoc=2 --l1i_size=32kB --l1d_size=32kB --l2_size=128kB --l3_size=1MB --mem-type=NVMainMemory --nvmain-config=/home/user/project/NVmain/Config/PCM_ISSCC_2012_4GB.config

Global frequency set at 1000000000000 ticks per second
NVMainControl: Reading NVMain config file: /home/user/project/NVmain/Config/PCM_ISSCC_2012_4GB.config.
NVMain: GlobalEventQueue: Added a memory subsystem running at 400MHz. My frequency is 2000MHz.
Config: Warning: Key EIDD0 is not set. Using '85' as the default. Please configure this value if this is wrong.
Config: Warning: Key EIDD1 is not set. Using '54' as the default. Please configure this value if this is wrong.
Config: Warning: Key EIDD2P0 is not set. Using '30' as the default. Please configure this value if this is wrong.
Config: Warning: Key EIDD2P1 is not set. Using '30' as the default. Please configure this value if this is wrong.
Config: Warning: Key EIDD2N is not set. Using '37' as the default. Please configure this value if this is wrong.
Config: Warning: Key EIDD3P is not set. Using '35' as the default. Please configure this value if this is wrong.
Config: Warning: Key EIDD3N is not set. Using '40' as the default. Please configure this value if this is wrong.
Config: Warning: Key EIDD4R is not set. Using '160' as the default. Please configure this value if this is wrong.
Config: Warning: Key EIDD4W is not set. Using '165' as the default. Please configure this value if this is wrong.
Config: Warning: Key EIDD5B is not set. Using '200' as the default. Please configure this value if this is wrong.
Config: Warning: Key EIDD6 is not set. Using '12' as the default. Please configure this value if this is wrong.
Config: Warning: Key Eactstdby is not set. Using '0.09009' as the default. Please configure this value if this is wrong.
Config: Warning: Key Eprestdby is not set. Using '0.083333' as the default. Please configure this value if this is wrong.
Config: Warning: Key Rtt_nom is not set. Using '30' as the default. Please configure this value if this is wrong.
Config: Warning: Key Rtt_wr is not set. Using '60' as the default. Please configure this value if this is wrong.
Config: Warning: Key Rtt_cont is not set. Using '75' as the default. Please configure this value if this is wrong.
Config: Warning: Key VDDQ is not set. Using '1.5' as the default. Please configure this value if this is wrong.
Config: Warning: Key VSSQ is not set. Using '0' as the default. Please configure this value if this is wrong.
Config: Warning: Key RanksPerDIMM is not set. Using '1' as the default. Please configure this value if this is wrong.
Config: Warning: Key DataEncoder is not set. Using 'default' as the default. Please configure this value if this is wrong.
Config: Warning: Key UseLowPower is not set. Using 'true' as the default. Please configure this value if this is wrong.
Config: Warning: Key PowerDownMode is not set. Using 'FASTEXIT' as the default. Please configure this value if this is wrong.
Config: Warning: Key PrintAllDevices is not set. Using 'false' as the default. Please configure this value if this is wrong.
Config: Warning: Key PrintConfig is not set. Using 'false' as the default. Please configure this value if this is wrong.
Config: Warning: Key StaggerRefresh is not set. Using 'false' as the default. Please configure this value if this is wrong.
Config: Warning: Key UsePrecharge is not set. Using 'true' as the default. Please configure this value if this is wrong.
Config: Warning: Key OffChipLatency is not set. Using '10' as the default. Please configure this value if this is wrong.
Config: Warning: Key RBSize is not set. Using '32' as the default. Please configure this value if this is wrong.
Config: Warning: Key MemoryPrefetcher is not set. Using 'none' as the default. Please configure this value if this is wrong.
Config: Warning: Key PrefetchBufferSize is not set. Using '32' as the default. Please configure this value if this is wrong.
Config: Warning: Key MLCLevels is not set. Using '1' as the default. Please configure this value if this is wrong.
Config: Warning: Key WPVariance is not set. Using '1' as the default. Please configure this value if this is wrong.
Config: Warning: Key UniformWrites is not set. Using 'true' as the default. Please configure this value if this is wrong.
Config: Warning: Key WriteAllBits is not set. Using 'true' as the default. Please configure this value if this is wrong.
Config: Warning: Key Ereset is not set. Using '0.054331' as the default. Please configure this value if this is wrong.
Config: Warning: Key Eset is not set. Using '0.101581' as the default. Please configure this value if this is wrong.
Config: Warning: Key nWP00 is not set. Using '0' as the default. Please configure this value if this is wrong.
Config: Warning: Key nWP01 is not set. Using '7' as the default. Please configure this value if this is wrong.
Config: Warning: Key nWP10 is not set. Using '5' as the default. Please configure this value if this is wrong.
Config: Warning: Key nWP11 is not set. Using '1' as the default. Please configure this value if this is wrong.
Config: Warning: Key WPMaxVariance is not set. Using '2' as the default. Please configure this value if this is wrong.
Config: Warning: Key DeadlockTimer is not set. Using '10000000' as the default. Please configure this value if this is wrong.
Config: Warning: Key EnableDebug is not set. Using 'false' as the default. Please configure this value if this is wrong.
Config: Warning: Key WritePausing is not set. Using 'false' as the default. Please configure this value if this is wrong.
Config: Warning: Key PauseThreshold is not set. Using '0.4' as the default. Please configure this value if this is wrong.
Config: Warning: Key MaxCancellations is not set. Using '4' as the default. Please configure this value if this is wrong.
NVMain: the address mapping order is 
	Sub-Array 1
	Row 6
	Column 2
	Bank 4
	Rank 5
	Channel 3
Config: Warning: Key CONFIG_CHANNEL0 is not set. Using '' as the default. Please configure this value if this is wrong.
Created a First Ready First Come First Serve memory         controller with write queue!
Config: Warning: Key EIDD0 is not set. Using '85' as the default. Please configure this value if this is wrong.
Config: Warning: Key EIDD1 is not set. Using '54' as the default. Please configure this value if this is wrong.
Config: Warning: Key EIDD2P0 is not set. Using '30' as the default. Please configure this value if this is wrong.
Config: Warning: Key EIDD2P1 is not set. Using '30' as the default. Please configure this value if this is wrong.
Config: Warning: Key EIDD2N is not set. Using '37' as the default. Please configure this value if this is wrong.
Config: Warning: Key EIDD3P is not set. Using '35' as the default. Please configure this value if this is wrong.
Config: Warning: Key EIDD3N is not set. Using '40' as the default. Please configure this value if this is wrong.
Config: Warning: Key EIDD4R is not set. Using '160' as the default. Please configure this value if this is wrong.
Config: Warning: Key EIDD4W is not set. Using '165' as the default. Please configure this value if this is wrong.
Config: Warning: Key EIDD5B is not set. Using '200' as the default. Please configure this value if this is wrong.
Config: Warning: Key EIDD6 is not set. Using '12' as the default. Please configure this value if this is wrong.
Config: Warning: Key Eactstdby is not set. Using '0.09009' as the default. Please configure this value if this is wrong.
Config: Warning: Key Eprestdby is not set. Using '0.083333' as the default. Please configure this value if this is wrong.
Config: Warning: Key Rtt_nom is not set. Using '30' as the default. Please configure this value if this is wrong.
Config: Warning: Key Rtt_wr is not set. Using '60' as the default. Please configure this value if this is wrong.
Config: Warning: Key Rtt_cont is not set. Using '75' as the default. Please configure this value if this is wrong.
Config: Warning: Key VDDQ is not set. Using '1.5' as the default. Please configure this value if this is wrong.
Config: Warning: Key VSSQ is not set. Using '0' as the default. Please configure this value if this is wrong.
Config: Warning: Key RanksPerDIMM is not set. Using '1' as the default. Please configure this value if this is wrong.
Config: Warning: Key DataEncoder is not set. Using 'default' as the default. Please configure this value if this is wrong.
Config: Warning: Key UseLowPower is not set. Using 'true' as the default. Please configure this value if this is wrong.
Config: Warning: Key PowerDownMode is not set. Using 'FASTEXIT' as the default. Please configure this value if this is wrong.
Config: Warning: Key PrintAllDevices is not set. Using 'false' as the default. Please configure this value if this is wrong.
Config: Warning: Key PrintConfig is not set. Using 'false' as the default. Please configure this value if this is wrong.
Config: Warning: Key StaggerRefresh is not set. Using 'false' as the default. Please configure this value if this is wrong.
Config: Warning: Key UsePrecharge is not set. Using 'true' as the default. Please configure this value if this is wrong.
Config: Warning: Key OffChipLatency is not set. Using '10' as the default. Please configure this value if this is wrong.
Config: Warning: Key RBSize is not set. Using '32' as the default. Please configure this value if this is wrong.
Config: Warning: Key MemoryPrefetcher is not set. Using 'none' as the default. Please configure this value if this is wrong.
Config: Warning: Key PrefetchBufferSize is not set. Using '32' as the default. Please configure this value if this is wrong.
Config: Warning: Key MLCLevels is not set. Using '1' as the default. Please configure this value if this is wrong.
Config: Warning: Key WPVariance is not set. Using '1' as the default. Please configure this value if this is wrong.
Config: Warning: Key UniformWrites is not set. Using 'true' as the default. Please configure this value if this is wrong.
Config: Warning: Key WriteAllBits is not set. Using 'true' as the default. Please configure this value if this is wrong.
Config: Warning: Key Ereset is not set. Using '0.054331' as the default. Please configure this value if this is wrong.
Config: Warning: Key Eset is not set. Using '0.101581' as the default. Please configure this value if this is wrong.
Config: Warning: Key nWP00 is not set. Using '0' as the default. Please configure this value if this is wrong.
Config: Warning: Key nWP01 is not set. Using '7' as the default. Please configure this value if this is wrong.
Config: Warning: Key nWP10 is not set. Using '5' as the default. Please configure this value if this is wrong.
Config: Warning: Key nWP11 is not set. Using '1' as the default. Please configure this value if this is wrong.
Config: Warning: Key WPMaxVariance is not set. Using '2' as the default. Please configure this value if this is wrong.
Config: Warning: Key DeadlockTimer is not set. Using '10000000' as the default. Please configure this value if this is wrong.
Config: Warning: Key EnableDebug is not set. Using 'false' as the default. Please configure this value if this is wrong.
Config: Warning: Key WritePausing is not set. Using 'false' as the default. Please configure this value if this is wrong.
Config: Warning: Key PauseThreshold is not set. Using '0.4' as the default. Please configure this value if this is wrong.
Config: Warning: Key MaxCancellations is not set. Using '4' as the default. Please configure this value if this is wrong.
Config: Warning: Key Decoder is not set. Using '' as the default. Please configure this value if this is wrong.
Config: Warning: Key RankType is not set. Using '' as the default. Please configure this value if this is wrong.
Creating 4 banks in all 8 devices.
Config: Warning: Key BankType is not set. Using '' as the default. Please configure this value if this is wrong.
NVMain: the address mapping order is 
	Sub-Array 1
	Row 6
	Column 2
	Bank 4
	Rank 5
	Channel 3
defaultMemory.channel0.FRFCFS-WQF capacity is 4096 MB.
Creating 4 command queues.
**** REAL SIMULATION ****
      0: system.cpu.icache: access for ReadReq [190:197] IF miss
   1000: system.cpu.icache: sendMSHRQueuePacket: MSHR ReadReq [190:197] IF
   1000: system.cpu.icache: createMissPacket: created ReadCleanReq [180:1bf] IF from ReadReq [190:197] IF
   1000: system.l2: access for ReadCleanReq [180:1bf] IF miss
  11500: system.l2: sendMSHRQueuePacket: MSHR ReadCleanReq [180:1bf] IF
  11500: system.l2: createMissPacket: created ReadSharedReq [180:1bf] IF from ReadCleanReq [180:1bf] IF
  11500: system.l3: access for ReadSharedReq [180:1bf] IF miss
  22000: system.l3: sendMSHRQueuePacket: MSHR ReadSharedReq [180:1bf] IF
  22000: system.l3: createMissPacket: created ReadSharedReq [180:1bf] IF from ReadSharedReq [180:1bf] IF
 418000: system.l3: recvTimingResp: Handling response ReadResp [180:1bf] IF
 418000: system.l3: Block for addr 0x180 being updated in Cache
 418000: system.l3: Block addr 0x180 (ns) moving from state 0 to state: 7 (E) valid: 1 writable: 1 readable: 1 dirty: 0 tag: 0
 428500: system.l2: recvTimingResp: Handling response ReadResp [180:1bf] IF
 428500: system.l2: Block for addr 0x180 being updated in Cache
 428500: system.l2: Block addr 0x180 (ns) moving from state 0 to state: 7 (E) valid: 1 writable: 1 readable: 1 dirty: 0 tag: 0
 439000: system.cpu.icache: recvTimingResp: Handling response ReadResp [180:1bf] IF
 439000: system.cpu.icache: Block for addr 0x180 being updated in Cache
 439000: system.cpu.icache: Block addr 0x180 (ns) moving from state 0 to state: 5 (S) valid: 1 writable: 0 readable: 1 dirty: 0 tag: 0
 440000: system.cpu.icache: access for ReadReq [190:197] IF hit state: 5 (S) valid: 1 writable: 0 readable: 1 dirty: 0 tag: 0
 441000: system.cpu.icache: access for ReadReq [190:197] IF hit state: 5 (S) valid: 1 writable: 0 readable: 1 dirty: 0 tag: 0
 442000: system.cpu.dcache: access for ReadReq [94e00:94e07] miss
 443000: system.cpu.dcache: sendMSHRQueuePacket: MSHR ReadReq [94e00:94e07]
 443000: system.cpu.dcache: createMissPacket: created ReadSharedReq [94e00:94e3f] from ReadReq [94e00:94e07]
 443000: system.l2: access for ReadSharedReq [94e00:94e3f] miss
 453500: system.l2: sendMSHRQueuePacket: MSHR ReadSharedReq [94e00:94e3f]
 453500: system.l2: createMissPacket: created ReadSharedReq [94e00:94e3f] from ReadSharedReq [94e00:94e3f]
 453500: system.l3: access for ReadSharedReq [94e00:94e3f] miss
 464000: system.l3: sendMSHRQueuePacket: MSHR ReadSharedReq [94e00:94e3f]
 464000: system.l3: createMissPacket: created ReadSharedReq [94e00:94e3f] from ReadSharedReq [94e00:94e3f]
 738000: system.l3: recvTimingResp: Handling response ReadResp [94e00:94e3f]
 738000: system.l3: Block for addr 0x94e00 being updated in Cache
 738000: system.l3: Block addr 0x94e00 (ns) moving from state 0 to state: 7 (E) valid: 1 writable: 1 readable: 1 dirty: 0 tag: 1
 748500: system.l2: recvTimingResp: Handling response ReadResp [94e00:94e3f]
 748500: system.l2: Block for addr 0x94e00 being updated in Cache
 748500: system.l2: Block addr 0x94e00 (ns) moving from state 0 to state: 7 (E) valid: 1 writable: 1 readable: 1 dirty: 0 tag: 25
 759000: system.cpu.dcache: recvTimingResp: Handling response ReadResp [94e00:94e3f]
 759000: system.cpu.dcache: Block for addr 0x94e00 being updated in Cache
 759000: system.cpu.dcache: Block addr 0x94e00 (ns) moving from state 0 to state: 7 (E) valid: 1 writable: 1 readable: 1 dirty: 0 tag: 25
 760000: system.cpu.icache: access for ReadReq [190:197] IF hit state: 5 (S) valid: 1 writable: 0 readable: 1 dirty: 0 tag: 0
 761000: system.cpu.icache: access for ReadReq [198:19f] IF hit state: 5 (S) valid: 1 writable: 0 readable: 1 dirty: 0 tag: 0
 762000: system.cpu.icache: access for ReadReq [198:19f] IF hit state: 5 (S) valid: 1 writable: 0 readable: 1 dirty: 0 tag: 0
 763000: system.cpu.icache: access for ReadReq [198:19f] IF hit state: 5 (S) valid: 1 writable: 0 readable: 1 dirty: 0 tag: 0
 764000: system.cpu.dcache: access for WriteReq [94df8:94dff] miss
 765000: system.cpu.dcache: sendMSHRQueuePacket: MSHR WriteReq [94df8:94dff]
 765000: system.cpu.dcache: createMissPacket: created ReadExReq [94dc0:94dff] from WriteReq [94df8:94dff]
 765000: system.l2: access for ReadExReq [94dc0:94dff] miss
 775500: system.l2: sendMSHRQueuePacket: MSHR ReadExReq [94dc0:94dff]
 775500: system.l2: createMissPacket: created ReadExReq [94dc0:94dff] from ReadExReq [94dc0:94dff]
 775500: system.l3: access for ReadExReq [94dc0:94dff] miss
 786000: system.l3: sendMSHRQueuePacket: MSHR ReadExReq [94dc0:94dff]
 786000: system.l3: createMissPacket: created ReadExReq [94dc0:94dff] from ReadExReq [94dc0:94dff]
 818000: system.l3: recvTimingResp: Handling response ReadExResp [94dc0:94dff]
 818000: system.l3: Block for addr 0x94dc0 being updated in Cache
 818000: system.l3: Block addr 0x94dc0 (ns) moving from state 0 to state: 7 (E) valid: 1 writable: 1 readable: 1 dirty: 0 tag: 1
 828500: system.l2: recvTimingResp: Handling response ReadExResp [94dc0:94dff]
 828500: system.l2: Block for addr 0x94dc0 being updated in Cache
 828500: system.l2: Block addr 0x94dc0 (ns) moving from state 0 to state: 7 (E) valid: 1 writable: 1 readable: 1 dirty: 0 tag: 25
 839000: system.cpu.dcache: recvTimingResp: Handling response ReadExResp [94dc0:94dff]
 839000: system.cpu.dcache: Block for addr 0x94dc0 being updated in Cache
 839000: system.cpu.dcache: Block addr 0x94dc0 (ns) moving from state 0 to state: 7 (E) valid: 1 writable: 1 readable: 1 dirty: 0 tag: 25
 840000: system.cpu.icache: access for ReadReq [198:19f] IF hit state: 5 (S) valid: 1 writable: 0 readable: 1 dirty: 0 tag: 0
 841000: system.cpu.dcache: access for WriteReq [94df0:94df7] hit state: f (M) valid: 1 writable: 1 readable: 1 dirty: 1 tag: 25
 842000: system.cpu.icache: access for ReadReq [1a0:1a7] IF hit state: 5 (S) valid: 1 writable: 0 readable: 1 dirty: 0 tag: 0
 843000: system.cpu.icache: access for ReadReq [1a0:1a7] IF hit state: 5 (S) valid: 1 writable: 0 readable: 1 dirty: 0 tag: 0
 844000: system.cpu.icache: access for ReadReq [1a8:1af] IF hit state: 5 (S) valid: 1 writable: 0 readable: 1 dirty: 0 tag: 0
 845000: system.cpu.icache: access for ReadReq [1a8:1af] IF hit state: 5 (S) valid: 1 writable: 0 readable: 1 dirty: 0 tag: 0
 846000: system.cpu.icache: access for ReadReq [1b0:1b7] IF hit state: 5 (S) valid: 1 writable: 0 readable: 1 dirty: 0 tag: 0
 847000: system.cpu.icache: access for ReadReq [1b0:1b7] IF hit state: 5 (S) valid: 1 writable: 0 readable: 1 dirty: 0 tag: 0
 848000: system.cpu.icache: access for ReadReq [1b8:1bf] IF hit state: 5 (S) valid: 1 writable: 0 readable: 1 dirty: 0 tag: 0
 849000: system.cpu.dcache: access for WriteReq [94de8:94def] hit state: f (M) valid: 1 writable: 1 readable: 1 dirty: 1 tag: 25
 850000: system.cpu.icache: access for ReadReq [9a00:9a07] IF miss
 851000: system.cpu.icache: sendMSHRQueuePacket: MSHR ReadReq [9a00:9a07] IF
 851000: system.cpu.icache: createMissPacket: created ReadCleanReq [9a00:9a3f] IF from ReadReq [9a00:9a07] IF
 851000: system.l2: access for ReadCleanReq [9a00:9a3f] IF miss
 861500: system.l2: sendMSHRQueuePacket: MSHR ReadCleanReq [9a00:9a3f] IF
 861500: system.l2: createMissPacket: created ReadSharedReq [9a00:9a3f] IF from ReadCleanReq [9a00:9a3f] IF
 861500: system.l3: access for ReadSharedReq [9a00:9a3f] IF miss
 872000: system.l3: sendMSHRQueuePacket: MSHR ReadSharedReq [9a00:9a3f] IF
 872000: system.l3: createMissPacket: created ReadSharedReq [9a00:9a3f] IF from ReadSharedReq [9a00:9a3f] IF
1143000: system.l3: recvTimingResp: Handling response ReadResp [9a00:9a3f] IF
1143000: system.l3: Block for addr 0x9a00 being updated in Cache
1143000: system.l3: Block addr 0x9a00 (ns) moving from state 0 to state: 7 (E) valid: 1 writable: 1 readable: 1 dirty: 0 tag: 0
1153500: system.l2: recvTimingResp: Handling response ReadResp [9a00:9a3f] IF
1153500: system.l2: Block for addr 0x9a00 being updated in Cache
1153500: system.l2: Block addr 0x9a00 (ns) moving from state 0 to state: 7 (E) valid: 1 writable: 1 readable: 1 dirty: 0 tag: 2
1164000: system.cpu.icache: recvTimingResp: Handling response ReadResp [9a00:9a3f] IF
1164000: system.cpu.icache: Block for addr 0x9a00 being updated in Cache
1164000: system.cpu.icache: Block addr 0x9a00 (ns) moving from state 0 to state: 5 (S) valid: 1 writable: 0 readable: 1 dirty: 0 tag: 2
1165000: system.cpu.dcache: access for WriteReq [94de0:94de7] hit state: f (M) valid: 1 writable: 1 readable: 1 dirty: 1 tag: 25
1166000: system.cpu.icache: access for ReadReq [9a00:9a07] IF hit state: 5 (S) valid: 1 writable: 0 readable: 1 dirty: 0 tag: 2
1167000: system.cpu.icache: access for ReadReq [9a00:9a07] IF hit state: 5 (S) valid: 1 writable: 0 readable: 1 dirty: 0 tag: 2
1168000: system.cpu.icache: access for ReadReq [9a08:9a0f] IF hit state: 5 (S) valid: 1 writable: 0 readable: 1 dirty: 0 tag: 2
1169000: system.cpu.dcache: access for WriteReq [94dd8:94ddf] hit state: f (M) valid: 1 writable: 1 readable: 1 dirty: 1 tag: 25
1170000: system.cpu.icache: access for ReadReq [9a08:9a0f] IF hit state: 5 (S) valid: 1 writable: 0 readable: 1 dirty: 0 tag: 2
1171000: system.cpu.icache: access for ReadReq [9a08:9a0f] IF hit state: 5 (S) valid: 1 writable: 0 readable: 1 dirty: 0 tag: 2
1172000: system.cpu.dcache: access for WriteReq [94dd0:94dd7] hit state: f (M) valid: 1 writable: 1 readable: 1 dirty: 1 tag: 25
1173000: system.cpu.icache: access for ReadReq [9a08:9a0f] IF hit state: 5 (S) valid: 1 writable: 0 readable: 1 dirty: 0 tag: 2
1174000: system.cpu.icache: access for ReadReq [9a10:9a17] IF hit state: 5 (S) valid: 1 writable: 0 readable: 1 dirty: 0 tag: 2
1175000: system.cpu.icache: access for ReadReq [9a10:9a17] IF hit state: 5 (S) valid: 1 writable: 0 readable: 1 dirty: 0 tag: 2
1176000: system.cpu.dcache: access for WriteReq [94dc8:94dcf] hit state: f (M) valid: 1 writable: 1 readable: 1 dirty: 1 tag: 25
1177000: system.cpu.icache: access for ReadReq [9a10:9a17] IF hit state: 5 (S) valid: 1 writable: 0 readable: 1 dirty: 0 tag: 2
1178000: system.cpu.dcache: access for WriteReq [94dc0:94dc7] hit state: f (M) valid: 1 writable: 1 readable: 1 dirty: 1 tag: 25
1179000: system.cpu.icache: access for ReadReq [9a10:9a17] IF hit state: 5 (S) valid: 1 writable: 0 readable: 1 dirty: 0 tag: 2
1180000: system.cpu.dcache: access for WriteReq [94db8:94dbf] miss
1181000: system.cpu.dcache: sendMSHRQueuePacket: MSHR WriteReq [94db8:94dbf]
1181000: system.cpu.dcache: createMissPacket: created ReadExReq [94d80:94dbf] from WriteReq [94db8:94dbf]
1181000: system.l2: access for ReadExReq [94d80:94dbf] miss
1191500: system.l2: sendMSHRQueuePacket: MSHR ReadExReq [94d80:94dbf]
1191500: system.l2: createMissPacket: created ReadExReq [94d80:94dbf] from ReadExReq [94d80:94dbf]
1191500: system.l3: access for ReadExReq [94d80:94dbf] miss
1202000: system.l3: sendMSHRQueuePacket: MSHR ReadExReq [94d80:94dbf]
1202000: system.l3: createMissPacket: created ReadExReq [94d80:94dbf] from ReadExReq [94d80:94dbf]
1223000: system.l3: recvTimingResp: Handling response ReadExResp [94d80:94dbf]
1223000: system.l3: Block for addr 0x94d80 being updated in Cache
1223000: system.l3: Block addr 0x94d80 (ns) moving from state 0 to state: 7 (E) valid: 1 writable: 1 readable: 1 dirty: 0 tag: 1
1233500: system.l2: recvTimingResp: Handling response ReadExResp [94d80:94dbf]
1233500: system.l2: Block for addr 0x94d80 being updated in Cache
1233500: system.l2: Block addr 0x94d80 (ns) moving from state 0 to state: 7 (E) valid: 1 writable: 1 readable: 1 dirty: 0 tag: 25
1244000: system.cpu.dcache: recvTimingResp: Handling response ReadExResp [94d80:94dbf]
1244000: system.cpu.dcache: Block for addr 0x94d80 being updated in Cache
1244000: system.cpu.dcache: Block addr 0x94d80 (ns) moving from state 0 to state: 7 (E) valid: 1 writable: 1 readable: 1 dirty: 0 tag: 25
1245000: system.cpu.icache: access for ReadReq [9a10:9a17] IF hit state: 5 (S) valid: 1 writable: 0 readable: 1 dirty: 0 tag: 2
1246000: system.cpu.icache: access for ReadReq [9a18:9a1f] IF hit state: 5 (S) valid: 1 writable: 0 readable: 1 dirty: 0 tag: 2
1247000: system.cpu.icache: access for ReadReq [9a18:9a1f] IF hit state: 5 (S) valid: 1 writable: 0 readable: 1 dirty: 0 tag: 2
1248000: system.cpu.icache: access for ReadReq [9a20:9a27] IF hit state: 5 (S) valid: 1 writable: 0 readable: 1 dirty: 0 tag: 2
1249000: system.cpu.dcache: access for WriteReq [94bd8:94bdf] miss
1250000: system.cpu.dcache: sendMSHRQueuePacket: MSHR WriteReq [94bd8:94bdf]
1250000: system.cpu.dcache: createMissPacket: created ReadExReq [94bc0:94bff] from WriteReq [94bd8:94bdf]
1250000: system.l2: access for ReadExReq [94bc0:94bff] miss
1260500: system.l2: sendMSHRQueuePacket: MSHR ReadExReq [94bc0:94bff]
1260500: system.l2: createMissPacket: created ReadExReq [94bc0:94bff] from ReadExReq [94bc0:94bff]
1260500: system.l3: access for ReadExReq [94bc0:94bff] miss
1271000: system.l3: sendMSHRQueuePacket: MSHR ReadExReq [94bc0:94bff]
1271000: system.l3: createMissPacket: created ReadExReq [94bc0:94bff] from ReadExReq [94bc0:94bff]
1303000: system.l3: recvTimingResp: Handling response ReadExResp [94bc0:94bff]
1303000: system.l3: Block for addr 0x94bc0 being updated in Cache
1303000: system.l3: Block addr 0x94bc0 (ns) moving from state 0 to state: 7 (E) valid: 1 writable: 1 readable: 1 dirty: 0 tag: 1
1313500: system.l2: recvTimingResp: Handling response ReadExResp [94bc0:94bff]
1313500: system.l2: Block for addr 0x94bc0 being updated in Cache
1313500: system.l2: Block addr 0x94bc0 (ns) moving from state 0 to state: 7 (E) valid: 1 writable: 1 readable: 1 dirty: 0 tag: 25
1324000: system.cpu.dcache: recvTimingResp: Handling response ReadExResp [94bc0:94bff]
1324000: system.cpu.dcache: Block for addr 0x94bc0 being updated in Cache
1324000: system.cpu.dcache: Block addr 0x94bc0 (ns) moving from state 0 to state: 7 (E) valid: 1 writable: 1 readable: 1 dirty: 0 tag: 25
1325000: system.cpu.icache: access for ReadReq [9a20:9a27] IF hit state: 5 (S) valid: 1 writable: 0 readable: 1 dirty: 0 tag: 2
1326000: system.cpu.icache: access for ReadReq [9a20:9a27] IF hit state: 5 (S) valid: 1 writable: 0 readable: 1 dirty: 0 tag: 2
1327000: system.cpu.icache: access for ReadReq [9a28:9a2f] IF hit state: 5 (S) valid: 1 writable: 0 readable: 1 dirty: 0 tag: 2
1328000: system.cpu.icache: access for ReadReq [9a28:9a2f] IF hit state: 5 (S) valid: 1 writable: 0 readable: 1 dirty: 0 tag: 2
1329000: system.cpu.icache: access for ReadReq [9a28:9a2f] IF hit state: 5 (S) valid: 1 writable: 0 readable: 1 dirty: 0 tag: 2
1330000: system.cpu.icache: access for ReadReq [9a30:9a37] IF hit state: 5 (S) valid: 1 writable: 0 readable: 1 dirty: 0 tag: 2
1331000: system.cpu.icache: access for ReadReq [9a30:9a37] IF hit state: 5 (S) valid: 1 writable: 0 readable: 1 dirty: 0 tag: 2
1332000: system.cpu.dcache: access for WriteReq [94bd0:94bd7] hit state: f (M) valid: 1 writable: 1 readable: 1 dirty: 1 tag: 25
1333000: system.cpu.icache: access for ReadReq [9a30:9a37] IF hit state: 5 (S) valid: 1 writable: 0 readable: 1 dirty: 0 tag: 2
1334000: system.cpu.icache: access for ReadReq [9a38:9a3f] IF hit state: 5 (S) valid: 1 writable: 0 readable: 1 dirty: 0 tag: 2
1335000: system.cpu.dcache: access for WriteReq [94bc8:94bcf] hit state: f (M) valid: 1 writable: 1 readable: 1 dirty: 1 tag: 25
1336000: system.cpu.icache: access for ReadReq [9a38:9a3f] IF hit state: 5 (S) valid: 1 writable: 0 readable: 1 dirty: 0 tag: 2
1337000: system.cpu.icache: access for ReadReq [9a48:9a4f] IF miss
1338000: system.cpu.icache: sendMSHRQueuePacket: MSHR ReadReq [9a48:9a4f] IF
1338000: system.cpu.icache: createMissPacket: created ReadCleanReq [9a40:9a7f] IF from ReadReq [9a48:9a4f] IF
1338000: system.l2: access for ReadCleanReq [9a40:9a7f] IF miss
1348500: system.l2: sendMSHRQueuePacket: MSHR ReadCleanReq [9a40:9a7f] IF
1348500: system.l2: createMissPacket: created ReadSharedReq [9a40:9a7f] IF from ReadCleanReq [9a40:9a7f] IF
1348500: system.l3: access for ReadSharedReq [9a40:9a7f] IF miss
1359000: system.l3: sendMSHRQueuePacket: MSHR ReadSharedReq [9a40:9a7f] IF
1359000: system.l3: createMissPacket: created ReadSharedReq [9a40:9a7f] IF from ReadSharedReq [9a40:9a7f] IF
1383000: system.l3: recvTimingResp: Handling response ReadResp [9a40:9a7f] IF
1383000: system.l3: Block for addr 0x9a40 being updated in Cache
1383000: system.l3: Block addr 0x9a40 (ns) moving from state 0 to state: 7 (E) valid: 1 writable: 1 readable: 1 dirty: 0 tag: 0
1393500: system.l2: recvTimingResp: Handling response ReadResp [9a40:9a7f] IF
1393500: system.l2: Block for addr 0x9a40 being updated in Cache
1393500: system.l2: Block addr 0x9a40 (ns) moving from state 0 to state: 7 (E) valid: 1 writable: 1 readable: 1 dirty: 0 tag: 2
1404000: system.cpu.icache: recvTimingResp: Handling response ReadResp [9a40:9a7f] IF
1404000: system.cpu.icache: Block for addr 0x9a40 being updated in Cache
1404000: system.cpu.icache: Block addr 0x9a40 (ns) moving from state 0 to state: 5 (S) valid: 1 writable: 0 readable: 1 dirty: 0 tag: 2
1405000: system.cpu.icache: access for ReadReq [9a50:9a57] IF hit state: 5 (S) valid: 1 writable: 0 readable: 1 dirty: 0 tag: 2
1406000: system.cpu.dcache: access for ReadReq [94df0:94df7] hit state: f (M) valid: 1 writable: 1 readable: 1 dirty: 1 tag: 25
1407000: system.cpu.icache: access for ReadReq [9a50:9a57] IF hit state: 5 (S) valid: 1 writable: 0 readable: 1 dirty: 0 tag: 2
1408000: system.cpu.icache: access for ReadReq [9a58:9a5f] IF hit state: 5 (S) valid: 1 writable: 0 readable: 1 dirty: 0 tag: 2
1409000: system.cpu.dcache: access for WriteReq [807b0:807b3] miss
1410000: system.cpu.dcache: sendMSHRQueuePacket: MSHR WriteReq [807b0:807b3]
1410000: system.cpu.dcache: createMissPacket: created ReadExReq [80780:807bf] from WriteReq [807b0:807b3]
1410000: system.l2: access for ReadExReq [80780:807bf] miss
1420500: system.l2: sendMSHRQueuePacket: MSHR ReadExReq [80780:807bf]
1420500: system.l2: createMissPacket: created ReadExReq [80780:807bf] from ReadExReq [80780:807bf]
1420500: system.l3: access for ReadExReq [80780:807bf] miss
1431000: system.l3: sendMSHRQueuePacket: MSHR ReadExReq [80780:807bf]
1431000: system.l3: createMissPacket: created ReadExReq [80780:807bf] from ReadExReq [80780:807bf]
1708000: system.l3: recvTimingResp: Handling response ReadExResp [80780:807bf]
1708000: system.l3: Block for addr 0x80780 being updated in Cache
1708000: system.l3: Block addr 0x80780 (ns) moving from state 0 to state: 7 (E) valid: 1 writable: 1 readable: 1 dirty: 0 tag: 1
1718500: system.l2: recvTimingResp: Handling response ReadExResp [80780:807bf]
1718500: system.l2: Block for addr 0x80780 being updated in Cache
1718500: system.l2: Block addr 0x80780 (ns) moving from state 0 to state: 7 (E) valid: 1 writable: 1 readable: 1 dirty: 0 tag: 20
1729000: system.cpu.dcache: recvTimingResp: Handling response ReadExResp [80780:807bf]
1729000: system.cpu.dcache: Block for addr 0x80780 being updated in Cache
1729000: system.cpu.dcache: Block addr 0x80780 (ns) moving from state 0 to state: 7 (E) valid: 1 writable: 1 readable: 1 dirty: 0 tag: 20
1730000: system.cpu.icache: access for ReadReq [9a58:9a5f] IF hit state: 5 (S) valid: 1 writable: 0 readable: 1 dirty: 0 tag: 2
1731000: system.cpu.icache: access for ReadReq [9a60:9a67] IF hit state: 5 (S) valid: 1 writable: 0 readable: 1 dirty: 0 tag: 2
1732000: system.cpu.dcache: access for WriteReq [92df8:92dff] miss
1733000: system.cpu.dcache: sendMSHRQueuePacket: MSHR WriteReq [92df8:92dff]
1733000: system.cpu.dcache: createMissPacket: created ReadExReq [92dc0:92dff] from WriteReq [92df8:92dff]
1733000: system.l2: access for ReadExReq [92dc0:92dff] miss
1743500: system.l2: sendMSHRQueuePacket: MSHR ReadExReq [92dc0:92dff]
1743500: system.l2: createMissPacket: created ReadExReq [92dc0:92dff] from ReadExReq [92dc0:92dff]
1743500: system.l3: access for ReadExReq [92dc0:92dff] miss
1754000: system.l3: sendMSHRQueuePacket: MSHR ReadExReq [92dc0:92dff]
1754000: system.l3: createMissPacket: created ReadExReq [92dc0:92dff] from ReadExReq [92dc0:92dff]
2033000: system.l3: recvTimingResp: Handling response ReadExResp [92dc0:92dff]
2033000: system.l3: Block for addr 0x92dc0 being updated in Cache
2033000: system.l3: Block addr 0x92dc0 (ns) moving from state 0 to state: 7 (E) valid: 1 writable: 1 readable: 1 dirty: 0 tag: 1
2043500: system.l2: recvTimingResp: Handling response ReadExResp [92dc0:92dff]
2043500: system.l2: Block for addr 0x92dc0 being updated in Cache
2043500: system.l2: Block addr 0x92dc0 (ns) moving from state 0 to state: 7 (E) valid: 1 writable: 1 readable: 1 dirty: 0 tag: 24
2054000: system.cpu.dcache: recvTimingResp: Handling response ReadExResp [92dc0:92dff]
2054000: system.cpu.dcache: Block for addr 0x92dc0 being updated in Cache
2054000: system.cpu.dcache: Block addr 0x92dc0 (ns) moving from state 0 to state: 7 (E) valid: 1 writable: 1 readable: 1 dirty: 0 tag: 24
2055000: system.cpu.icache: access for ReadReq [9a60:9a67] IF hit state: 5 (S) valid: 1 writable: 0 readable: 1 dirty: 0 tag: 2
2056000: system.cpu.icache: access for ReadReq [9a68:9a6f] IF hit state: 5 (S) valid: 1 writable: 0 readable: 1 dirty: 0 tag: 2
2057000: system.cpu.dcache: access for WriteReq [7f9f8:7f9ff] miss
2058000: system.cpu.dcache: sendMSHRQueuePacket: MSHR WriteReq [7f9f8:7f9ff]
2058000: system.cpu.dcache: createMissPacket: created ReadExReq [7f9c0:7f9ff] from WriteReq [7f9f8:7f9ff]
2058000: system.l2: access for ReadExReq [7f9c0:7f9ff] miss
2068500: system.l2: sendMSHRQueuePacket: MSHR ReadExReq [7f9c0:7f9ff]
2068500: system.l2: createMissPacket: created ReadExReq [7f9c0:7f9ff] from ReadExReq [7f9c0:7f9ff]
2068500: system.l3: access for ReadExReq [7f9c0:7f9ff] miss
2079000: system.l3: sendMSHRQueuePacket: MSHR ReadExReq [7f9c0:7f9ff]
2079000: system.l3: createMissPacket: created ReadExReq [7f9c0:7f9ff] from ReadExReq [7f9c0:7f9ff]
2353000: system.l3: recvTimingResp: Handling response ReadExResp [7f9c0:7f9ff]
2353000: system.l3: Block for addr 0x7f9c0 being updated in Cache
2353000: system.l3: Block addr 0x7f9c0 (ns) moving from state 0 to state: 7 (E) valid: 1 writable: 1 readable: 1 dirty: 0 tag: 0
2363500: system.l2: recvTimingResp: Handling response ReadExResp [7f9c0:7f9ff]
2363500: system.l2: Block for addr 0x7f9c0 being updated in Cache
2363500: system.l2: Block addr 0x7f9c0 (ns) moving from state 0 to state: 7 (E) valid: 1 writable: 1 readable: 1 dirty: 0 tag: 1f
2374000: system.cpu.dcache: recvTimingResp: Handling response ReadExResp [7f9c0:7f9ff]
2374000: system.cpu.dcache: Block for addr 0x7f9c0 being updated in Cache
2374000: system.cpu.dcache: Block addr 0x7f9c0 (ns) moving from state 0 to state: 7 (E) valid: 1 writable: 1 readable: 1 dirty: 0 tag: 1f
2375000: system.cpu.icache: access for ReadReq [9a68:9a6f] IF hit state: 5 (S) valid: 1 writable: 0 readable: 1 dirty: 0 tag: 2
2376000: system.cpu.icache: access for ReadReq [9a68:9a6f] IF hit state: 5 (S) valid: 1 writable: 0 readable: 1 dirty: 0 tag: 2
2377000: system.cpu.icache: access for ReadReq [9a70:9a77] IF hit state: 5 (S) valid: 1 writable: 0 readable: 1 dirty: 0 tag: 2
2378000: system.cpu.dcache: access for ReadReq [94e18:94e1f] hit state: 7 (E) valid: 1 writable: 1 readable: 1 dirty: 0 tag: 25
2379000: system.cpu.icache: access for ReadReq [9a70:9a77] IF hit state: 5 (S) valid: 1 writable: 0 readable: 1 dirty: 0 tag: 2
2380000: system.cpu.icache: access for ReadReq [9a70:9a77] IF hit state: 5 (S) valid: 1 writable: 0 readable: 1 dirty: 0 tag: 2
2381000: system.cpu.icache: access for ReadReq [9a78:9a7f] IF hit state: 5 (S) valid: 1 writable: 0 readable: 1 dirty: 0 tag: 2
2382000: system.cpu.icache: access for ReadReq [9a78:9a7f] IF hit state: 5 (S) valid: 1 writable: 0 readable: 1 dirty: 0 tag: 2
2383000: system.cpu.icache: access for ReadReq [9a78:9a7f] IF hit state: 5 (S) valid: 1 writable: 0 readable: 1 dirty: 0 tag: 2
2384000: system.cpu.icache: access for ReadReq [9a80:9a87] IF miss
2385000: system.cpu.icache: sendMSHRQueuePacket: MSHR ReadReq [9a80:9a87] IF
2385000: system.cpu.icache: createMissPacket: created ReadCleanReq [9a80:9abf] IF from ReadReq [9a80:9a87] IF
2385000: system.l2: access for ReadCleanReq [9a80:9abf] IF miss
2395500: system.l2: sendMSHRQueuePacket: MSHR ReadCleanReq [9a80:9abf] IF
2395500: system.l2: createMissPacket: created ReadSharedReq [9a80:9abf] IF from ReadCleanReq [9a80:9abf] IF
2395500: system.l3: access for ReadSharedReq [9a80:9abf] IF miss
2406000: system.l3: sendMSHRQueuePacket: MSHR ReadSharedReq [9a80:9abf] IF
2406000: system.l3: createMissPacket: created ReadSharedReq [9a80:9abf] IF from ReadSharedReq [9a80:9abf] IF
2678000: system.l3: recvTimingResp: Handling response ReadResp [9a80:9abf] IF
2678000: system.l3: Block for addr 0x9a80 being updated in Cache
2678000: system.l3: Block addr 0x9a80 (ns) moving from state 0 to state: 7 (E) valid: 1 writable: 1 readable: 1 dirty: 0 tag: 0
2688500: system.l2: recvTimingResp: Handling response ReadResp [9a80:9abf] IF
2688500: system.l2: Block for addr 0x9a80 being updated in Cache
2688500: system.l2: Block addr 0x9a80 (ns) moving from state 0 to state: 7 (E) valid: 1 writable: 1 readable: 1 dirty: 0 tag: 2
2699000: system.cpu.icache: recvTimingResp: Handling response ReadResp [9a80:9abf] IF
2699000: system.cpu.icache: Block for addr 0x9a80 being updated in Cache
2699000: system.cpu.icache: Block addr 0x9a80 (ns) moving from state 0 to state: 5 (S) valid: 1 writable: 0 readable: 1 dirty: 0 tag: 2
2700000: system.cpu.dcache: access for WriteReq [94bb8:94bbf] miss
2701000: system.cpu.dcache: sendMSHRQueuePacket: MSHR WriteReq [94bb8:94bbf]
2701000: system.cpu.dcache: createMissPacket: created ReadExReq [94b80:94bbf] from WriteReq [94bb8:94bbf]
2701000: system.l2: access for ReadExReq [94b80:94bbf] miss
2711500: system.l2: sendMSHRQueuePacket: MSHR ReadExReq [94b80:94bbf]
2711500: system.l2: createMissPacket: created ReadExReq [94b80:94bbf] from ReadExReq [94b80:94bbf]
2711500: system.l3: access for ReadExReq [94b80:94bbf] miss
2722000: system.l3: sendMSHRQueuePacket: MSHR ReadExReq [94b80:94bbf]
2722000: system.l3: createMissPacket: created ReadExReq [94b80:94bbf] from ReadExReq [94b80:94bbf]
3003000: system.l3: recvTimingResp: Handling response ReadExResp [94b80:94bbf]
3003000: system.l3: Block for addr 0x94b80 being updated in Cache
3003000: system.l3: Block addr 0x94b80 (ns) moving from state 0 to state: 7 (E) valid: 1 writable: 1 readable: 1 dirty: 0 tag: 1
3013500: system.l2: recvTimingResp: Handling response ReadExResp [94b80:94bbf]
3013500: system.l2: Block for addr 0x94b80 being updated in Cache
3013500: system.l2: Block addr 0x94b80 (ns) moving from state 0 to state: 7 (E) valid: 1 writable: 1 readable: 1 dirty: 0 tag: 25
3024000: system.cpu.dcache: recvTimingResp: Handling response ReadExResp [94b80:94bbf]
3024000: system.cpu.dcache: Block for addr 0x94b80 being updated in Cache
3024000: system.cpu.dcache: Block addr 0x94b80 (ns) moving from state 0 to state: 7 (E) valid: 1 writable: 1 readable: 1 dirty: 0 tag: 25
3025000: system.cpu.icache: access for ReadReq [15b00:15b07] IF miss
3026000: system.cpu.icache: sendMSHRQueuePacket: MSHR ReadReq [15b00:15b07] IF
3026000: system.cpu.icache: createMissPacket: created ReadCleanReq [15b00:15b3f] IF from ReadReq [15b00:15b07] IF
3026000: system.l2: access for ReadCleanReq [15b00:15b3f] IF miss
3036500: system.l2: sendMSHRQueuePacket: MSHR ReadCleanReq [15b00:15b3f] IF
3036500: system.l2: createMissPacket: created ReadSharedReq [15b00:15b3f] IF from ReadCleanReq [15b00:15b3f] IF
3036500: system.l3: access for ReadSharedReq [15b00:15b3f] IF miss
3047000: system.l3: sendMSHRQueuePacket: MSHR ReadSharedReq [15b00:15b3f] IF
3047000: system.l3: createMissPacket: created ReadSharedReq [15b00:15b3f] IF from ReadSharedReq [15b00:15b3f] IF
3328000: system.l3: recvTimingResp: Handling response ReadResp [15b00:15b3f] IF
3328000: system.l3: Block for addr 0x15b00 being updated in Cache
3328000: system.l3: Block addr 0x15b00 (ns) moving from state 0 to state: 7 (E) valid: 1 writable: 1 readable: 1 dirty: 0 tag: 0
3338500: system.l2: recvTimingResp: Handling response ReadResp [15b00:15b3f] IF
3338500: system.l2: Block for addr 0x15b00 being updated in Cache
3338500: system.l2: Block addr 0x15b00 (ns) moving from state 0 to state: 7 (E) valid: 1 writable: 1 readable: 1 dirty: 0 tag: 5
3349000: system.cpu.icache: recvTimingResp: Handling response ReadResp [15b00:15b3f] IF
3349000: system.cpu.icache: Block for addr 0x15b00 being updated in Cache
3349000: system.cpu.icache: Block addr 0x15b00 (ns) moving from state 0 to state: 5 (S) valid: 1 writable: 0 readable: 1 dirty: 0 tag: 5
3350000: system.cpu.dcache: access for ReadReq [94e20:94e27] hit state: 7 (E) valid: 1 writable: 1 readable: 1 dirty: 0 tag: 25
3351000: system.cpu.icache: access for ReadReq [15b00:15b07] IF hit state: 5 (S) valid: 1 writable: 0 readable: 1 dirty: 0 tag: 5
3352000: system.cpu.icache: access for ReadReq [15b00:15b07] IF hit state: 5 (S) valid: 1 writable: 0 readable: 1 dirty: 0 tag: 5
3353000: system.cpu.icache: access for ReadReq [15b00:15b07] IF hit state: 5 (S) valid: 1 writable: 0 readable: 1 dirty: 0 tag: 5
3354000: system.cpu.icache: access for ReadReq [15b08:15b0f] IF hit state: 5 (S) valid: 1 writable: 0 readable: 1 dirty: 0 tag: 5
3355000: system.cpu.icache: access for ReadReq [15b08:15b0f] IF hit state: 5 (S) valid: 1 writable: 0 readable: 1 dirty: 0 tag: 5
3356000: system.cpu.icache: access for ReadReq [15b08:15b0f] IF hit state: 5 (S) valid: 1 writable: 0 readable: 1 dirty: 0 tag: 5
3357000: system.cpu.icache: access for ReadReq [15b08:15b0f] IF hit state: 5 (S) valid: 1 writable: 0 readable: 1 dirty: 0 tag: 5
3358000: system.cpu.icache: access for ReadReq [15b10:15b17] IF hit state: 5 (S) valid: 1 writable: 0 readable: 1 dirty: 0 tag: 5
3359000: system.cpu.icache: access for ReadReq [15b10:15b17] IF hit state: 5 (S) valid: 1 writable: 0 readable: 1 dirty: 0 tag: 5
3360000: system.cpu.icache: access for ReadReq [15b18:15b1f] IF hit state: 5 (S) valid: 1 writable: 0 readable: 1 dirty: 0 tag: 5
3361000: system.cpu.icache: access for ReadReq [15b40:15b47] IF miss
3362000: system.cpu.icache: sendMSHRQueuePacket: MSHR ReadReq [15b40:15b47] IF
3362000: system.cpu.icache: createMissPacket: created ReadCleanReq [15b40:15b7f] IF from ReadReq [15b40:15b47] IF
3362000: system.l2: access for ReadCleanReq [15b40:15b7f] IF miss
3372500: system.l2: sendMSHRQueuePacket: MSHR ReadCleanReq [15b40:15b7f] IF
3372500: system.l2: createMissPacket: created ReadSharedReq [15b40:15b7f] IF from ReadCleanReq [15b40:15b7f] IF
3372500: system.l3: access for ReadSharedReq [15b40:15b7f] IF miss
3383000: system.l3: sendMSHRQueuePacket: MSHR ReadSharedReq [15b40:15b7f] IF
3383000: system.l3: createMissPacket: created ReadSharedReq [15b40:15b7f] IF from ReadSharedReq [15b40:15b7f] IF
3408000: system.l3: recvTimingResp: Handling response ReadResp [15b40:15b7f] IF
3408000: system.l3: Block for addr 0x15b40 being updated in Cache
3408000: system.l3: Block addr 0x15b40 (ns) moving from state 0 to state: 7 (E) valid: 1 writable: 1 readable: 1 dirty: 0 tag: 0
3418500: system.l2: recvTimingResp: Handling response ReadResp [15b40:15b7f] IF
3418500: system.l2: Block for addr 0x15b40 being updated in Cache
3418500: system.l2: Block addr 0x15b40 (ns) moving from state 0 to state: 7 (E) valid: 1 writable: 1 readable: 1 dirty: 0 tag: 5
3429000: system.cpu.icache: recvTimingResp: Handling response ReadResp [15b40:15b7f] IF
3429000: system.cpu.icache: Block for addr 0x15b40 being updated in Cache
3429000: system.cpu.icache: Block addr 0x15b40 (ns) moving from state 0 to state: 5 (S) valid: 1 writable: 0 readable: 1 dirty: 0 tag: 5
3430000: system.cpu.icache: access for ReadReq [15b40:15b47] IF hit state: 5 (S) valid: 1 writable: 0 readable: 1 dirty: 0 tag: 5
3431000: system.cpu.dcache: access for ReadReq [94e30:94e37] hit state: 7 (E) valid: 1 writable: 1 readable: 1 dirty: 0 tag: 25
3432000: system.cpu.icache: access for ReadReq [15b40:15b47] IF hit state: 5 (S) valid: 1 writable: 0 readable: 1 dirty: 0 tag: 5
3433000: system.cpu.icache: access for ReadReq [15b48:15b4f] IF hit state: 5 (S) valid: 1 writable: 0 readable: 1 dirty: 0 tag: 5
3434000: system.cpu.icache: access for ReadReq [15b48:15b4f] IF hit state: 5 (S) valid: 1 writable: 0 readable: 1 dirty: 0 tag: 5
3435000: system.cpu.icache: access for ReadReq [15b10:15b17] IF hit state: 5 (S) valid: 1 writable: 0 readable: 1 dirty: 0 tag: 5
3436000: system.cpu.icache: access for ReadReq [15b10:15b17] IF hit state: 5 (S) valid: 1 writable: 0 readable: 1 dirty: 0 tag: 5
3437000: system.cpu.icache: access for ReadReq [15b18:15b1f] IF hit state: 5 (S) valid: 1 writable: 0 readable: 1 dirty: 0 tag: 5
3438000: system.cpu.icache: access for ReadReq [15b18:15b1f] IF hit state: 5 (S) valid: 1 writable: 0 readable: 1 dirty: 0 tag: 5
3439000: system.cpu.icache: access for ReadReq [15b20:15b27] IF hit state: 5 (S) valid: 1 writable: 0 readable: 1 dirty: 0 tag: 5
3440000: system.cpu.dcache: access for ReadReq [5ebe8:5ebef] miss
3441000: system.cpu.dcache: sendMSHRQueuePacket: MSHR ReadReq [5ebe8:5ebef]
3441000: system.cpu.dcache: createMissPacket: created ReadSharedReq [5ebc0:5ebff] from ReadReq [5ebe8:5ebef]
3441000: system.l2: access for ReadSharedReq [5ebc0:5ebff] miss
3451500: system.l2: sendMSHRQueuePacket: MSHR ReadSharedReq [5ebc0:5ebff]
3451500: system.l2: createMissPacket: created ReadSharedReq [5ebc0:5ebff] from ReadSharedReq [5ebc0:5ebff]
3451500: system.l3: access for ReadSharedReq [5ebc0:5ebff] miss
3462000: system.l3: sendMSHRQueuePacket: MSHR ReadSharedReq [5ebc0:5ebff]
3462000: system.l3: createMissPacket: created ReadSharedReq [5ebc0:5ebff] from ReadSharedReq [5ebc0:5ebff]
3733000: system.l3: recvTimingResp: Handling response ReadResp [5ebc0:5ebff]
3733000: system.l3: Block for addr 0x5ebc0 being updated in Cache
3733000: system.l3: Block addr 0x5ebc0 (ns) moving from state 0 to state: 7 (E) valid: 1 writable: 1 readable: 1 dirty: 0 tag: 0
3743500: system.l2: recvTimingResp: Handling response ReadResp [5ebc0:5ebff]
3743500: system.l2: Block for addr 0x5ebc0 being updated in Cache
3743500: system.l2: Block addr 0x5ebc0 (ns) moving from state 0 to state: 7 (E) valid: 1 writable: 1 readable: 1 dirty: 0 tag: 17
3754000: system.cpu.dcache: recvTimingResp: Handling response ReadResp [5ebc0:5ebff]
3754000: system.cpu.dcache: Block for addr 0x5ebc0 being updated in Cache
3754000: system.cpu.dcache: Block addr 0x5ebc0 (ns) moving from state 0 to state: 7 (E) valid: 1 writable: 1 readable: 1 dirty: 0 tag: 17
3755000: system.cpu.icache: access for ReadReq [15b68:15b6f] IF hit state: 5 (S) valid: 1 writable: 0 readable: 1 dirty: 0 tag: 5
3756000: system.cpu.icache: access for ReadReq [15b70:15b77] IF hit state: 5 (S) valid: 1 writable: 0 readable: 1 dirty: 0 tag: 5
3757000: system.cpu.dcache: access for ReadReq [94e38:94e3f] hit state: 7 (E) valid: 1 writable: 1 readable: 1 dirty: 0 tag: 25
3758000: system.cpu.icache: access for ReadReq [15b70:15b77] IF hit state: 5 (S) valid: 1 writable: 0 readable: 1 dirty: 0 tag: 5
3759000: system.cpu.icache: access for ReadReq [15b70:15b77] IF hit state: 5 (S) valid: 1 writable: 0 readable: 1 dirty: 0 tag: 5
3760000: system.cpu.icache: access for ReadReq [15b78:15b7f] IF hit state: 5 (S) valid: 1 writable: 0 readable: 1 dirty: 0 tag: 5
3761000: system.cpu.dcache: access for WriteReq [92e70:92e77] miss
3762000: system.cpu.dcache: sendMSHRQueuePacket: MSHR WriteReq [92e70:92e77]
3762000: system.cpu.dcache: createMissPacket: created ReadExReq [92e40:92e7f] from WriteReq [92e70:92e77]
3762000: system.l2: access for ReadExReq [92e40:92e7f] miss
3772500: system.l2: sendMSHRQueuePacket: MSHR ReadExReq [92e40:92e7f]
3772500: system.l2: createMissPacket: created ReadExReq [92e40:92e7f] from ReadExReq [92e40:92e7f]
3772500: system.l3: access for ReadExReq [92e40:92e7f] miss
3783000: system.l3: sendMSHRQueuePacket: MSHR ReadExReq [92e40:92e7f]
3783000: system.l3: createMissPacket: created ReadExReq [92e40:92e7f] from ReadExReq [92e40:92e7f]
4058000: system.l3: recvTimingResp: Handling response ReadExResp [92e40:92e7f]
4058000: system.l3: Block for addr 0x92e40 being updated in Cache
4058000: system.l3: Block addr 0x92e40 (ns) moving from state 0 to state: 7 (E) valid: 1 writable: 1 readable: 1 dirty: 0 tag: 1
4068500: system.l2: recvTimingResp: Handling response ReadExResp [92e40:92e7f]
4068500: system.l2: Block for addr 0x92e40 being updated in Cache
4068500: system.l2: Block addr 0x92e40 (ns) moving from state 0 to state: 7 (E) valid: 1 writable: 1 readable: 1 dirty: 0 tag: 24
4079000: system.cpu.dcache: recvTimingResp: Handling response ReadExResp [92e40:92e7f]
4079000: system.cpu.dcache: Block for addr 0x92e40 being updated in Cache
4079000: system.cpu.dcache: Block addr 0x92e40 (ns) moving from state 0 to state: 7 (E) valid: 1 writable: 1 readable: 1 dirty: 0 tag: 24
4080000: system.cpu.icache: access for ReadReq [15b78:15b7f] IF hit state: 5 (S) valid: 1 writable: 0 readable: 1 dirty: 0 tag: 5
4081000: system.cpu.icache: access for ReadReq [15b80:15b87] IF miss
4082000: system.cpu.icache: sendMSHRQueuePacket: MSHR ReadReq [15b80:15b87] IF
4082000: system.cpu.icache: createMissPacket: created ReadCleanReq [15b80:15bbf] IF from ReadReq [15b80:15b87] IF
4082000: system.l2: access for ReadCleanReq [15b80:15bbf] IF miss
4092500: system.l2: sendMSHRQueuePacket: MSHR ReadCleanReq [15b80:15bbf] IF
4092500: system.l2: createMissPacket: created ReadSharedReq [15b80:15bbf] IF from ReadCleanReq [15b80:15bbf] IF
4092500: system.l3: access for ReadSharedReq [15b80:15bbf] IF miss
4103000: system.l3: sendMSHRQueuePacket: MSHR ReadSharedReq [15b80:15bbf] IF
4103000: system.l3: createMissPacket: created ReadSharedReq [15b80:15bbf] IF from ReadSharedReq [15b80:15bbf] IF
4383000: system.l3: recvTimingResp: Handling response ReadResp [15b80:15bbf] IF
4383000: system.l3: Block for addr 0x15b80 being updated in Cache
4383000: system.l3: Block addr 0x15b80 (ns) moving from state 0 to state: 7 (E) valid: 1 writable: 1 readable: 1 dirty: 0 tag: 0
4393500: system.l2: recvTimingResp: Handling response ReadResp [15b80:15bbf] IF
4393500: system.l2: Block for addr 0x15b80 being updated in Cache
4393500: system.l2: Block addr 0x15b80 (ns) moving from state 0 to state: 7 (E) valid: 1 writable: 1 readable: 1 dirty: 0 tag: 5
4404000: system.cpu.icache: recvTimingResp: Handling response ReadResp [15b80:15bbf] IF
4404000: system.cpu.icache: Block for addr 0x15b80 being updated in Cache
4404000: system.cpu.icache: Block addr 0x15b80 (ns) moving from state 0 to state: 5 (S) valid: 1 writable: 0 readable: 1 dirty: 0 tag: 5
4405000: system.cpu.dcache: access for ReadReq [94e40:94e47] miss
4406000: system.cpu.dcache: sendMSHRQueuePacket: MSHR ReadReq [94e40:94e47]
4406000: system.cpu.dcache: createMissPacket: created ReadSharedReq [94e40:94e7f] from ReadReq [94e40:94e47]
4406000: system.l2: access for ReadSharedReq [94e40:94e7f] miss
4416500: system.l2: sendMSHRQueuePacket: MSHR ReadSharedReq [94e40:94e7f]
4416500: system.l2: createMissPacket: created ReadSharedReq [94e40:94e7f] from ReadSharedReq [94e40:94e7f]
4416500: system.l3: access for ReadSharedReq [94e40:94e7f] miss
4427000: system.l3: sendMSHRQueuePacket: MSHR ReadSharedReq [94e40:94e7f]
4427000: system.l3: createMissPacket: created ReadSharedReq [94e40:94e7f] from ReadSharedReq [94e40:94e7f]
4708000: system.l3: recvTimingResp: Handling response ReadResp [94e40:94e7f]
4708000: system.l3: Block for addr 0x94e40 being updated in Cache
4708000: system.l3: Block addr 0x94e40 (ns) moving from state 0 to state: 7 (E) valid: 1 writable: 1 readable: 1 dirty: 0 tag: 1
4718500: system.l2: recvTimingResp: Handling response ReadResp [94e40:94e7f]
4718500: system.l2: Block for addr 0x94e40 being updated in Cache
4718500: system.l2: Block addr 0x94e40 (ns) moving from state 0 to state: 7 (E) valid: 1 writable: 1 readable: 1 dirty: 0 tag: 25
4729000: system.cpu.dcache: recvTimingResp: Handling response ReadResp [94e40:94e7f]
4729000: system.cpu.dcache: Block for addr 0x94e40 being updated in Cache
4729000: system.cpu.dcache: Block addr 0x94e40 (ns) moving from state 0 to state: 7 (E) valid: 1 writable: 1 readable: 1 dirty: 0 tag: 25
4730000: system.cpu.icache: access for ReadReq [15b80:15b87] IF hit state: 5 (S) valid: 1 writable: 0 readable: 1 dirty: 0 tag: 5
4731000: system.cpu.icache: access for ReadReq [15b80:15b87] IF hit state: 5 (S) valid: 1 writable: 0 readable: 1 dirty: 0 tag: 5
4732000: system.cpu.icache: access for ReadReq [15b10:15b17] IF hit state: 5 (S) valid: 1 writable: 0 readable: 1 dirty: 0 tag: 5
4733000: system.cpu.icache: access for ReadReq [15b10:15b17] IF hit state: 5 (S) valid: 1 writable: 0 readable: 1 dirty: 0 tag: 5
4734000: system.cpu.icache: access for ReadReq [15b18:15b1f] IF hit state: 5 (S) valid: 1 writable: 0 readable: 1 dirty: 0 tag: 5
4735000: system.cpu.icache: access for ReadReq [15b18:15b1f] IF hit state: 5 (S) valid: 1 writable: 0 readable: 1 dirty: 0 tag: 5
4736000: system.cpu.icache: access for ReadReq [15b20:15b27] IF hit state: 5 (S) valid: 1 writable: 0 readable: 1 dirty: 0 tag: 5
4737000: system.cpu.dcache: access for ReadReq [5eb98:5eb9f] miss
4738000: system.cpu.dcache: sendMSHRQueuePacket: MSHR ReadReq [5eb98:5eb9f]
4738000: system.cpu.dcache: createMissPacket: created ReadSharedReq [5eb80:5ebbf] from ReadReq [5eb98:5eb9f]
4738000: system.l2: access for ReadSharedReq [5eb80:5ebbf] miss
4748500: system.l2: sendMSHRQueuePacket: MSHR ReadSharedReq [5eb80:5ebbf]
4748500: system.l2: createMissPacket: created ReadSharedReq [5eb80:5ebbf] from ReadSharedReq [5eb80:5ebbf]
4748500: system.l3: access for ReadSharedReq [5eb80:5ebbf] miss
4759000: system.l3: sendMSHRQueuePacket: MSHR ReadSharedReq [5eb80:5ebbf]
4759000: system.l3: createMissPacket: created ReadSharedReq [5eb80:5ebbf] from ReadSharedReq [5eb80:5ebbf]
5033000: system.l3: recvTimingResp: Handling response ReadResp [5eb80:5ebbf]
5033000: system.l3: Block for addr 0x5eb80 being updated in Cache
5033000: system.l3: Block addr 0x5eb80 (ns) moving from state 0 to state: 7 (E) valid: 1 writable: 1 readable: 1 dirty: 0 tag: 0
5043500: system.l2: recvTimingResp: Handling response ReadResp [5eb80:5ebbf]
5043500: system.l2: Block for addr 0x5eb80 being updated in Cache
5043500: system.l2: Block addr 0x5eb80 (ns) moving from state 0 to state: 7 (E) valid: 1 writable: 1 readable: 1 dirty: 0 tag: 17
5054000: system.cpu.dcache: recvTimingResp: Handling response ReadResp [5eb80:5ebbf]
5054000: system.cpu.dcache: Block for addr 0x5eb80 being updated in Cache
5054000: system.cpu.dcache: Block addr 0x5eb80 (ns) moving from state 0 to state: 7 (E) valid: 1 writable: 1 readable: 1 dirty: 0 tag: 17
5055000: system.cpu.icache: access for ReadReq [15be8:15bef] IF miss
5056000: system.cpu.icache: sendMSHRQueuePacket: MSHR ReadReq [15be8:15bef] IF
5056000: system.cpu.icache: createMissPacket: created ReadCleanReq [15bc0:15bff] IF from ReadReq [15be8:15bef] IF
5056000: system.l2: access for ReadCleanReq [15bc0:15bff] IF miss
5066500: system.l2: sendMSHRQueuePacket: MSHR ReadCleanReq [15bc0:15bff] IF
5066500: system.l2: createMissPacket: created ReadSharedReq [15bc0:15bff] IF from ReadCleanReq [15bc0:15bff] IF
5066500: system.l3: access for ReadSharedReq [15bc0:15bff] IF miss
5077000: system.l3: sendMSHRQueuePacket: MSHR ReadSharedReq [15bc0:15bff] IF
5077000: system.l3: createMissPacket: created ReadSharedReq [15bc0:15bff] IF from ReadSharedReq [15bc0:15bff] IF
5358000: system.l3: recvTimingResp: Handling response ReadResp [15bc0:15bff] IF
5358000: system.l3: Block for addr 0x15bc0 being updated in Cache
5358000: system.l3: Block addr 0x15bc0 (ns) moving from state 0 to state: 7 (E) valid: 1 writable: 1 readable: 1 dirty: 0 tag: 0
5368500: system.l2: recvTimingResp: Handling response ReadResp [15bc0:15bff] IF
5368500: system.l2: Block for addr 0x15bc0 being updated in Cache
5368500: system.l2: Block addr 0x15bc0 (ns) moving from state 0 to state: 7 (E) valid: 1 writable: 1 readable: 1 dirty: 0 tag: 5
5379000: system.cpu.icache: recvTimingResp: Handling response ReadResp [15bc0:15bff] IF
5379000: system.cpu.icache: Block for addr 0x15bc0 being updated in Cache
5379000: system.cpu.icache: Block addr 0x15bc0 (ns) moving from state 0 to state: 5 (S) valid: 1 writable: 0 readable: 1 dirty: 0 tag: 5
5380000: system.cpu.icache: access for ReadReq [15bf0:15bf7] IF hit state: 5 (S) valid: 1 writable: 0 readable: 1 dirty: 0 tag: 5
5381000: system.cpu.dcache: access for ReadReq [94e48:94e4f] hit state: 7 (E) valid: 1 writable: 1 readable: 1 dirty: 0 tag: 25
5382000: system.cpu.icache: access for ReadReq [15bf0:15bf7] IF hit state: 5 (S) valid: 1 writable: 0 readable: 1 dirty: 0 tag: 5
5383000: system.cpu.icache: access for ReadReq [15bf0:15bf7] IF hit state: 5 (S) valid: 1 writable: 0 readable: 1 dirty: 0 tag: 5
5384000: system.cpu.icache: access for ReadReq [15bf8:15bff] IF hit state: 5 (S) valid: 1 writable: 0 readable: 1 dirty: 0 tag: 5
5385000: system.cpu.dcache: access for WriteReq [93540:93547] miss
5386000: system.cpu.dcache: sendMSHRQueuePacket: MSHR WriteReq [93540:93547]
5386000: system.cpu.dcache: createMissPacket: created ReadExReq [93540:9357f] from WriteReq [93540:93547]
5386000: system.l2: access for ReadExReq [93540:9357f] miss
5396500: system.l2: sendMSHRQueuePacket: MSHR ReadExReq [93540:9357f]
5396500: system.l2: createMissPacket: created ReadExReq [93540:9357f] from ReadExReq [93540:9357f]
5396500: system.l3: access for ReadExReq [93540:9357f] miss
5407000: system.l3: sendMSHRQueuePacket: MSHR ReadExReq [93540:9357f]
5407000: system.l3: createMissPacket: created ReadExReq [93540:9357f] from ReadExReq [93540:9357f]
5683000: system.l3: recvTimingResp: Handling response ReadExResp [93540:9357f]
5683000: system.l3: Block for addr 0x93540 being updated in Cache
5683000: system.l3: Block addr 0x93540 (ns) moving from state 0 to state: 7 (E) valid: 1 writable: 1 readable: 1 dirty: 0 tag: 1
5693500: system.l2: recvTimingResp: Handling response ReadExResp [93540:9357f]
5693500: system.l2: Block for addr 0x93540 being updated in Cache
5693500: system.l2: Block addr 0x93540 (ns) moving from state 0 to state: 7 (E) valid: 1 writable: 1 readable: 1 dirty: 0 tag: 24
5704000: system.cpu.dcache: recvTimingResp: Handling response ReadExResp [93540:9357f]
5704000: system.cpu.dcache: Block for addr 0x93540 being updated in Cache
5704000: system.cpu.dcache: Block addr 0x93540 (ns) moving from state 0 to state: 7 (E) valid: 1 writable: 1 readable: 1 dirty: 0 tag: 24
5705000: system.cpu.icache: access for ReadReq [15bf8:15bff] IF hit state: 5 (S) valid: 1 writable: 0 readable: 1 dirty: 0 tag: 5
5706000: system.cpu.dcache: access for ReadReq [94e50:94e57] hit state: 7 (E) valid: 1 writable: 1 readable: 1 dirty: 0 tag: 25
5707000: system.cpu.icache: access for ReadReq [15c00:15c07] IF miss
5708000: system.cpu.icache: sendMSHRQueuePacket: MSHR ReadReq [15c00:15c07] IF
5708000: system.cpu.icache: createMissPacket: created ReadCleanReq [15c00:15c3f] IF from ReadReq [15c00:15c07] IF
5708000: system.l2: access for ReadCleanReq [15c00:15c3f] IF miss
5718500: system.l2: sendMSHRQueuePacket: MSHR ReadCleanReq [15c00:15c3f] IF
5718500: system.l2: createMissPacket: created ReadSharedReq [15c00:15c3f] IF from ReadCleanReq [15c00:15c3f] IF
5718500: system.l3: access for ReadSharedReq [15c00:15c3f] IF miss
5729000: system.l3: sendMSHRQueuePacket: MSHR ReadSharedReq [15c00:15c3f] IF
5729000: system.l3: createMissPacket: created ReadSharedReq [15c00:15c3f] IF from ReadSharedReq [15c00:15c3f] IF
6008000: system.l3: recvTimingResp: Handling response ReadResp [15c00:15c3f] IF
6008000: system.l3: Block for addr 0x15c00 being updated in Cache
6008000: system.l3: Block addr 0x15c00 (ns) moving from state 0 to state: 7 (E) valid: 1 writable: 1 readable: 1 dirty: 0 tag: 0
6018500: system.l2: recvTimingResp: Handling response ReadResp [15c00:15c3f] IF
6018500: system.l2: Block for addr 0x15c00 being updated in Cache
6018500: system.l2: Block addr 0x15c00 (ns) moving from state 0 to state: 7 (E) valid: 1 writable: 1 readable: 1 dirty: 0 tag: 5
6029000: system.cpu.icache: recvTimingResp: Handling response ReadResp [15c00:15c3f] IF
6029000: system.cpu.icache: Block for addr 0x15c00 being updated in Cache
6029000: system.cpu.icache: Block addr 0x15c00 (ns) moving from state 0 to state: 5 (S) valid: 1 writable: 0 readable: 1 dirty: 0 tag: 5
6030000: system.cpu.icache: access for ReadReq [15c00:15c07] IF hit state: 5 (S) valid: 1 writable: 0 readable: 1 dirty: 0 tag: 5
6031000: system.cpu.icache: access for ReadReq [15c08:15c0f] IF hit state: 5 (S) valid: 1 writable: 0 readable: 1 dirty: 0 tag: 5
6032000: system.cpu.icache: access for ReadReq [15b10:15b17] IF hit state: 5 (S) valid: 1 writable: 0 readable: 1 dirty: 0 tag: 5
6033000: system.cpu.icache: access for ReadReq [15b10:15b17] IF hit state: 5 (S) valid: 1 writable: 0 readable: 1 dirty: 0 tag: 5
6034000: system.cpu.icache: access for ReadReq [15b18:15b1f] IF hit state: 5 (S) valid: 1 writable: 0 readable: 1 dirty: 0 tag: 5
6035000: system.cpu.icache: access for ReadReq [15b18:15b1f] IF hit state: 5 (S) valid: 1 writable: 0 readable: 1 dirty: 0 tag: 5
6036000: system.cpu.icache: access for ReadReq [15b20:15b27] IF hit state: 5 (S) valid: 1 writable: 0 readable: 1 dirty: 0 tag: 5
6037000: system.cpu.dcache: access for ReadReq [5ebf0:5ebf7] hit state: 7 (E) valid: 1 writable: 1 readable: 1 dirty: 0 tag: 17
6038000: system.cpu.icache: access for ReadReq [15b50:15b57] IF hit state: 5 (S) valid: 1 writable: 0 readable: 1 dirty: 0 tag: 5
6039000: system.cpu.icache: access for ReadReq [15b58:15b5f] IF hit state: 5 (S) valid: 1 writable: 0 readable: 1 dirty: 0 tag: 5
6040000: system.cpu.dcache: access for ReadReq [94e58:94e5f] hit state: 7 (E) valid: 1 writable: 1 readable: 1 dirty: 0 tag: 25
6041000: system.cpu.icache: access for ReadReq [15b58:15b5f] IF hit state: 5 (S) valid: 1 writable: 0 readable: 1 dirty: 0 tag: 5
6042000: system.cpu.icache: access for ReadReq [15b58:15b5f] IF hit state: 5 (S) valid: 1 writable: 0 readable: 1 dirty: 0 tag: 5
6043000: system.cpu.icache: access for ReadReq [15b60:15b67] IF hit state: 5 (S) valid: 1 writable: 0 readable: 1 dirty: 0 tag: 5
6044000: system.cpu.dcache: access for WriteReq [934f0:934f3] miss
6045000: system.cpu.dcache: sendMSHRQueuePacket: MSHR WriteReq [934f0:934f3]
6045000: system.cpu.dcache: createMissPacket: created ReadExReq [934c0:934ff] from WriteReq [934f0:934f3]
6045000: system.l2: access for ReadExReq [934c0:934ff] miss
6055500: system.l2: sendMSHRQueuePacket: MSHR ReadExReq [934c0:934ff]
6055500: system.l2: createMissPacket: created ReadExReq [934c0:934ff] from ReadExReq [934c0:934ff]
6055500: system.l3: access for ReadExReq [934c0:934ff] miss
6066000: system.l3: sendMSHRQueuePacket: MSHR ReadExReq [934c0:934ff]
6066000: system.l3: createMissPacket: created ReadExReq [934c0:934ff] from ReadExReq [934c0:934ff]
6333000: system.l3: recvTimingResp: Handling response ReadExResp [934c0:934ff]
6333000: system.l3: Block for addr 0x934c0 being updated in Cache
6333000: system.l3: Block addr 0x934c0 (ns) moving from state 0 to state: 7 (E) valid: 1 writable: 1 readable: 1 dirty: 0 tag: 1
6343500: system.l2: recvTimingResp: Handling response ReadExResp [934c0:934ff]
6343500: system.l2: Block for addr 0x934c0 being updated in Cache
6343500: system.l2: Block addr 0x934c0 (ns) moving from state 0 to state: 7 (E) valid: 1 writable: 1 readable: 1 dirty: 0 tag: 24
6354000: system.cpu.dcache: recvTimingResp: Handling response ReadExResp [934c0:934ff]
6354000: system.cpu.dcache: Block for addr 0x934c0 being updated in Cache
6354000: system.cpu.dcache: Block addr 0x934c0 (ns) moving from state 0 to state: 7 (E) valid: 1 writable: 1 readable: 1 dirty: 0 tag: 24
6355000: system.cpu.icache: access for ReadReq [15b60:15b67] IF hit state: 5 (S) valid: 1 writable: 0 readable: 1 dirty: 0 tag: 5
6356000: system.cpu.dcache: access for ReadReq [94e60:94e67] hit state: 7 (E) valid: 1 writable: 1 readable: 1 dirty: 0 tag: 25
6357000: system.cpu.icache: access for ReadReq [15b68:15b6f] IF hit state: 5 (S) valid: 1 writable: 0 readable: 1 dirty: 0 tag: 5
6358000: system.cpu.icache: access for ReadReq [15b68:15b6f] IF hit state: 5 (S) valid: 1 writable: 0 readable: 1 dirty: 0 tag: 5
6359000: system.cpu.icache: access for ReadReq [15b10:15b17] IF hit state: 5 (S) valid: 1 writable: 0 readable: 1 dirty: 0 tag: 5
6360000: system.cpu.icache: access for ReadReq [15b10:15b17] IF hit state: 5 (S) valid: 1 writable: 0 readable: 1 dirty: 0 tag: 5
6361000: system.cpu.icache: access for ReadReq [15b18:15b1f] IF hit state: 5 (S) valid: 1 writable: 0 readable: 1 dirty: 0 tag: 5
6362000: system.cpu.icache: access for ReadReq [15b18:15b1f] IF hit state: 5 (S) valid: 1 writable: 0 readable: 1 dirty: 0 tag: 5
6363000: system.cpu.icache: access for ReadReq [15b20:15b27] IF hit state: 5 (S) valid: 1 writable: 0 readable: 1 dirty: 0 tag: 5
6364000: system.cpu.dcache: access for ReadReq [5eb80:5eb87] hit state: 7 (E) valid: 1 writable: 1 readable: 1 dirty: 0 tag: 17
6365000: system.cpu.icache: access for ReadReq [15c08:15c0f] IF hit state: 5 (S) valid: 1 writable: 0 readable: 1 dirty: 0 tag: 5
6366000: system.cpu.icache: access for ReadReq [15c10:15c17] IF hit state: 5 (S) valid: 1 writable: 0 readable: 1 dirty: 0 tag: 5
6367000: system.cpu.dcache: access for ReadReq [94e68:94e6f] hit state: 7 (E) valid: 1 writable: 1 readable: 1 dirty: 0 tag: 25
6368000: system.cpu.icache: access for ReadReq [15c10:15c17] IF hit state: 5 (S) valid: 1 writable: 0 readable: 1 dirty: 0 tag: 5
6369000: system.cpu.icache: access for ReadReq [15c10:15c17] IF hit state: 5 (S) valid: 1 writable: 0 readable: 1 dirty: 0 tag: 5
6370000: system.cpu.icache: access for ReadReq [15c18:15c1f] IF hit state: 5 (S) valid: 1 writable: 0 readable: 1 dirty: 0 tag: 5
6371000: system.cpu.dcache: access for WriteReq [934e0:934e7] hit state: f (M) valid: 1 writable: 1 readable: 1 dirty: 1 tag: 24
6372000: system.cpu.icache: access for ReadReq [15c18:15c1f] IF hit state: 5 (S) valid: 1 writable: 0 readable: 1 dirty: 0 tag: 5
6373000: system.cpu.dcache: access for ReadReq [94e70:94e77] hit state: 7 (E) valid: 1 writable: 1 readable: 1 dirty: 0 tag: 25
6374000: system.cpu.icache: access for ReadReq [15c20:15c27] IF hit state: 5 (S) valid: 1 writable: 0 readable: 1 dirty: 0 tag: 5
6375000: system.cpu.icache: access for ReadReq [15c20:15c27] IF hit state: 5 (S) valid: 1 writable: 0 readable: 1 dirty: 0 tag: 5
6376000: system.cpu.icache: access for ReadReq [15c28:15c2f] IF hit state: 5 (S) valid: 1 writable: 0 readable: 1 dirty: 0 tag: 5
6377000: system.cpu.icache: access for ReadReq [15b10:15b17] IF hit state: 5 (S) valid: 1 writable: 0 readable: 1 dirty: 0 tag: 5
6378000: system.cpu.icache: access for ReadReq [15b10:15b17] IF hit state: 5 (S) valid: 1 writable: 0 readable: 1 dirty: 0 tag: 5
6379000: system.cpu.icache: access for ReadReq [15b18:15b1f] IF hit state: 5 (S) valid: 1 writable: 0 readable: 1 dirty: 0 tag: 5
6380000: system.cpu.icache: access for ReadReq [15b18:15b1f] IF hit state: 5 (S) valid: 1 writable: 0 readable: 1 dirty: 0 tag: 5
6381000: system.cpu.icache: access for ReadReq [15b20:15b27] IF hit state: 5 (S) valid: 1 writable: 0 readable: 1 dirty: 0 tag: 5
6382000: system.cpu.dcache: access for ReadReq [5eb88:5eb8f] hit state: 7 (E) valid: 1 writable: 1 readable: 1 dirty: 0 tag: 17
6383000: system.cpu.icache: access for ReadReq [15b40:15b47] IF hit state: 5 (S) valid: 1 writable: 0 readable: 1 dirty: 0 tag: 5
6384000: system.cpu.icache: access for ReadReq [15b40:15b47] IF hit state: 5 (S) valid: 1 writable: 0 readable: 1 dirty: 0 tag: 5
6385000: system.cpu.dcache: access for ReadReq [94e80:94e87] miss
6386000: system.cpu.dcache: sendMSHRQueuePacket: MSHR ReadReq [94e80:94e87]
6386000: system.cpu.dcache: createMissPacket: created ReadSharedReq [94e80:94ebf] from ReadReq [94e80:94e87]
6386000: system.l2: access for ReadSharedReq [94e80:94ebf] miss
6396500: system.l2: sendMSHRQueuePacket: MSHR ReadSharedReq [94e80:94ebf]
6396500: system.l2: createMissPacket: created ReadSharedReq [94e80:94ebf] from ReadSharedReq [94e80:94ebf]
6396500: system.l3: access for ReadSharedReq [94e80:94ebf] miss
6407000: system.l3: sendMSHRQueuePacket: MSHR ReadSharedReq [94e80:94ebf]
6407000: system.l3: createMissPacket: created ReadSharedReq [94e80:94ebf] from ReadSharedReq [94e80:94ebf]
6658000: system.l3: recvTimingResp: Handling response ReadResp [94e80:94ebf]
6658000: system.l3: Block for addr 0x94e80 being updated in Cache
6658000: system.l3: Block addr 0x94e80 (ns) moving from state 0 to state: 7 (E) valid: 1 writable: 1 readable: 1 dirty: 0 tag: 1
6668500: system.l2: recvTimingResp: Handling response ReadResp [94e80:94ebf]
6668500: system.l2: Block for addr 0x94e80 being updated in Cache
6668500: system.l2: Block addr 0x94e80 (ns) moving from state 0 to state: 7 (E) valid: 1 writable: 1 readable: 1 dirty: 0 tag: 25
6679000: system.cpu.dcache: recvTimingResp: Handling response ReadResp [94e80:94ebf]
6679000: system.cpu.dcache: Block for addr 0x94e80 being updated in Cache
6679000: system.cpu.dcache: Block addr 0x94e80 (ns) moving from state 0 to state: 7 (E) valid: 1 writable: 1 readable: 1 dirty: 0 tag: 25
6680000: system.cpu.icache: access for ReadReq [15b40:15b47] IF hit state: 5 (S) valid: 1 writable: 0 readable: 1 dirty: 0 tag: 5
6681000: system.cpu.icache: access for ReadReq [15b48:15b4f] IF hit state: 5 (S) valid: 1 writable: 0 readable: 1 dirty: 0 tag: 5
6682000: system.cpu.icache: access for ReadReq [15b48:15b4f] IF hit state: 5 (S) valid: 1 writable: 0 readable: 1 dirty: 0 tag: 5
6683000: system.cpu.icache: access for ReadReq [15b10:15b17] IF hit state: 5 (S) valid: 1 writable: 0 readable: 1 dirty: 0 tag: 5
6684000: system.cpu.icache: access for ReadReq [15b10:15b17] IF hit state: 5 (S) valid: 1 writable: 0 readable: 1 dirty: 0 tag: 5
6685000: system.cpu.icache: access for ReadReq [15b18:15b1f] IF hit state: 5 (S) valid: 1 writable: 0 readable: 1 dirty: 0 tag: 5
6686000: system.cpu.icache: access for ReadReq [15b18:15b1f] IF hit state: 5 (S) valid: 1 writable: 0 readable: 1 dirty: 0 tag: 5
6687000: system.cpu.icache: access for ReadReq [15b20:15b27] IF hit state: 5 (S) valid: 1 writable: 0 readable: 1 dirty: 0 tag: 5
6688000: system.cpu.dcache: access for ReadReq [5eb90:5eb97] hit state: 7 (E) valid: 1 writable: 1 readable: 1 dirty: 0 tag: 17
6689000: system.cpu.icache: access for ReadReq [15c28:15c2f] IF hit state: 5 (S) valid: 1 writable: 0 readable: 1 dirty: 0 tag: 5
6690000: system.cpu.icache: access for ReadReq [15c30:15c37] IF hit state: 5 (S) valid: 1 writable: 0 readable: 1 dirty: 0 tag: 5
6691000: system.cpu.dcache: access for ReadReq [94e88:94e8f] hit state: 7 (E) valid: 1 writable: 1 readable: 1 dirty: 0 tag: 25
6692000: system.cpu.icache: access for ReadReq [15c30:15c37] IF hit state: 5 (S) valid: 1 writable: 0 readable: 1 dirty: 0 tag: 5
6693000: system.cpu.icache: access for ReadReq [15c30:15c37] IF hit state: 5 (S) valid: 1 writable: 0 readable: 1 dirty: 0 tag: 5
6694000: system.cpu.icache: access for ReadReq [15c38:15c3f] IF hit state: 5 (S) valid: 1 writable: 0 readable: 1 dirty: 0 tag: 5
6695000: system.cpu.dcache: access for WriteReq [93510:93517] miss
6696000: system.cpu.dcache: sendMSHRQueuePacket: MSHR WriteReq [93510:93517]
6696000: system.cpu.dcache: createMissPacket: created ReadExReq [93500:9353f] from WriteReq [93510:93517]
6696000: system.l2: access for ReadExReq [93500:9353f] miss
6706500: system.l2: sendMSHRQueuePacket: MSHR ReadExReq [93500:9353f]
6706500: system.l2: createMissPacket: created ReadExReq [93500:9353f] from ReadExReq [93500:9353f]
6706500: system.l3: access for ReadExReq [93500:9353f] miss
6717000: system.l3: sendMSHRQueuePacket: MSHR ReadExReq [93500:9353f]
6717000: system.l3: createMissPacket: created ReadExReq [93500:9353f] from ReadExReq [93500:9353f]
6983000: system.l3: recvTimingResp: Handling response ReadExResp [93500:9353f]
6983000: system.l3: Block for addr 0x93500 being updated in Cache
6983000: system.l3: Block addr 0x93500 (ns) moving from state 0 to state: 7 (E) valid: 1 writable: 1 readable: 1 dirty: 0 tag: 1
6993500: system.l2: recvTimingResp: Handling response ReadExResp [93500:9353f]
6993500: system.l2: Block for addr 0x93500 being updated in Cache
6993500: system.l2: Block addr 0x93500 (ns) moving from state 0 to state: 7 (E) valid: 1 writable: 1 readable: 1 dirty: 0 tag: 24
7004000: system.cpu.dcache: recvTimingResp: Handling response ReadExResp [93500:9353f]
7004000: system.cpu.dcache: Block for addr 0x93500 being updated in Cache
7004000: system.cpu.dcache: Block addr 0x93500 (ns) moving from state 0 to state: 7 (E) valid: 1 writable: 1 readable: 1 dirty: 0 tag: 24
7005000: system.cpu.icache: access for ReadReq [15c38:15c3f] IF hit state: 5 (S) valid: 1 writable: 0 readable: 1 dirty: 0 tag: 5
7006000: system.cpu.dcache: access for ReadReq [94e90:94e97] hit state: 7 (E) valid: 1 writable: 1 readable: 1 dirty: 0 tag: 25
7007000: system.cpu.icache: access for ReadReq [15c40:15c47] IF miss
7008000: system.cpu.icache: sendMSHRQueuePacket: MSHR ReadReq [15c40:15c47] IF
7008000: system.cpu.icache: createMissPacket: created ReadCleanReq [15c40:15c7f] IF from ReadReq [15c40:15c47] IF
7008000: system.l2: access for ReadCleanReq [15c40:15c7f] IF miss
7018500: system.l2: sendMSHRQueuePacket: MSHR ReadCleanReq [15c40:15c7f] IF
7018500: system.l2: createMissPacket: created ReadSharedReq [15c40:15c7f] IF from ReadCleanReq [15c40:15c7f] IF
7018500: system.l3: access for ReadSharedReq [15c40:15c7f] IF miss
7029000: system.l3: sendMSHRQueuePacket: MSHR ReadSharedReq [15c40:15c7f] IF
7029000: system.l3: createMissPacket: created ReadSharedReq [15c40:15c7f] IF from ReadSharedReq [15c40:15c7f] IF
7308000: system.l3: recvTimingResp: Handling response ReadResp [15c40:15c7f] IF
7308000: system.l3: Block for addr 0x15c40 being updated in Cache
7308000: system.l3: Block addr 0x15c40 (ns) moving from state 0 to state: 7 (E) valid: 1 writable: 1 readable: 1 dirty: 0 tag: 0
7318500: system.l2: recvTimingResp: Handling response ReadResp [15c40:15c7f] IF
7318500: system.l2: Block for addr 0x15c40 being updated in Cache
7318500: system.l2: Block addr 0x15c40 (ns) moving from state 0 to state: 7 (E) valid: 1 writable: 1 readable: 1 dirty: 0 tag: 5
7329000: system.cpu.icache: recvTimingResp: Handling response ReadResp [15c40:15c7f] IF
7329000: system.cpu.icache: Block for addr 0x15c40 being updated in Cache
7329000: system.cpu.icache: Block addr 0x15c40 (ns) moving from state 0 to state: 5 (S) valid: 1 writable: 0 readable: 1 dirty: 0 tag: 5
7330000: system.cpu.icache: access for ReadReq [15c40:15c47] IF hit state: 5 (S) valid: 1 writable: 0 readable: 1 dirty: 0 tag: 5
7331000: system.cpu.icache: access for ReadReq [15c48:15c4f] IF hit state: 5 (S) valid: 1 writable: 0 readable: 1 dirty: 0 tag: 5
7332000: system.cpu.icache: access for ReadReq [15b10:15b17] IF hit state: 5 (S) valid: 1 writable: 0 readable: 1 dirty: 0 tag: 5
7333000: system.cpu.icache: access for ReadReq [15b10:15b17] IF hit state: 5 (S) valid: 1 writable: 0 readable: 1 dirty: 0 tag: 5
7334000: system.cpu.icache: access for ReadReq [15b18:15b1f] IF hit state: 5 (S) valid: 1 writable: 0 readable: 1 dirty: 0 tag: 5
7335000: system.cpu.icache: access for ReadReq [15b18:15b1f] IF hit state: 5 (S) valid: 1 writable: 0 readable: 1 dirty: 0 tag: 5
7336000: system.cpu.icache: access for ReadReq [15b20:15b27] IF hit state: 5 (S) valid: 1 writable: 0 readable: 1 dirty: 0 tag: 5
7337000: system.cpu.dcache: access for ReadReq [5eba0:5eba7] hit state: 7 (E) valid: 1 writable: 1 readable: 1 dirty: 0 tag: 17
7338000: system.cpu.icache: access for ReadReq [15b40:15b47] IF hit state: 5 (S) valid: 1 writable: 0 readable: 1 dirty: 0 tag: 5
7339000: system.cpu.icache: access for ReadReq [15b40:15b47] IF hit state: 5 (S) valid: 1 writable: 0 readable: 1 dirty: 0 tag: 5
7340000: system.cpu.dcache: access for ReadReq [94ea0:94ea7] hit state: 7 (E) valid: 1 writable: 1 readable: 1 dirty: 0 tag: 25
7341000: system.cpu.icache: access for ReadReq [15b40:15b47] IF hit state: 5 (S) valid: 1 writable: 0 readable: 1 dirty: 0 tag: 5
7342000: system.cpu.icache: access for ReadReq [15b48:15b4f] IF hit state: 5 (S) valid: 1 writable: 0 readable: 1 dirty: 0 tag: 5
7343000: system.cpu.icache: access for ReadReq [15b48:15b4f] IF hit state: 5 (S) valid: 1 writable: 0 readable: 1 dirty: 0 tag: 5
7344000: system.cpu.icache: access for ReadReq [15b10:15b17] IF hit state: 5 (S) valid: 1 writable: 0 readable: 1 dirty: 0 tag: 5
7345000: system.cpu.icache: access for ReadReq [15b10:15b17] IF hit state: 5 (S) valid: 1 writable: 0 readable: 1 dirty: 0 tag: 5
7346000: system.cpu.icache: access for ReadReq [15b18:15b1f] IF hit state: 5 (S) valid: 1 writable: 0 readable: 1 dirty: 0 tag: 5
7347000: system.cpu.icache: access for ReadReq [15b18:15b1f] IF hit state: 5 (S) valid: 1 writable: 0 readable: 1 dirty: 0 tag: 5
7348000: system.cpu.icache: access for ReadReq [15b20:15b27] IF hit state: 5 (S) valid: 1 writable: 0 readable: 1 dirty: 0 tag: 5
7349000: system.cpu.dcache: access for ReadReq [5eba8:5ebaf] hit state: 7 (E) valid: 1 writable: 1 readable: 1 dirty: 0 tag: 17
7350000: system.cpu.icache: access for ReadReq [15b40:15b47] IF hit state: 5 (S) valid: 1 writable: 0 readable: 1 dirty: 0 tag: 5
7351000: system.cpu.icache: access for ReadReq [15b40:15b47] IF hit state: 5 (S) valid: 1 writable: 0 readable: 1 dirty: 0 tag: 5
7352000: system.cpu.dcache: access for ReadReq [94eb0:94eb7] hit state: 7 (E) valid: 1 writable: 1 readable: 1 dirty: 0 tag: 25
7353000: system.cpu.icache: access for ReadReq [15b40:15b47] IF hit state: 5 (S) valid: 1 writable: 0 readable: 1 dirty: 0 tag: 5
7354000: system.cpu.icache: access for ReadReq [15b48:15b4f] IF hit state: 5 (S) valid: 1 writable: 0 readable: 1 dirty: 0 tag: 5
7355000: system.cpu.icache: access for ReadReq [15b48:15b4f] IF hit state: 5 (S) valid: 1 writable: 0 readable: 1 dirty: 0 tag: 5
7356000: system.cpu.icache: access for ReadReq [15b10:15b17] IF hit state: 5 (S) valid: 1 writable: 0 readable: 1 dirty: 0 tag: 5
7357000: system.cpu.icache: access for ReadReq [15b10:15b17] IF hit state: 5 (S) valid: 1 writable: 0 readable: 1 dirty: 0 tag: 5
7358000: system.cpu.icache: access for ReadReq [15b18:15b1f] IF hit state: 5 (S) valid: 1 writable: 0 readable: 1 dirty: 0 tag: 5
7359000: system.cpu.icache: access for ReadReq [15b18:15b1f] IF hit state: 5 (S) valid: 1 writable: 0 readable: 1 dirty: 0 tag: 5
7360000: system.cpu.icache: access for ReadReq [15b20:15b27] IF hit state: 5 (S) valid: 1 writable: 0 readable: 1 dirty: 0 tag: 5
7361000: system.cpu.dcache: access for ReadReq [5ebb0:5ebb7] hit state: 7 (E) valid: 1 writable: 1 readable: 1 dirty: 0 tag: 17
7362000: system.cpu.icache: access for ReadReq [15b40:15b47] IF hit state: 5 (S) valid: 1 writable: 0 readable: 1 dirty: 0 tag: 5
7363000: system.cpu.icache: access for ReadReq [15b40:15b47] IF hit state: 5 (S) valid: 1 writable: 0 readable: 1 dirty: 0 tag: 5
7364000: system.cpu.dcache: access for ReadReq [94ec0:94ec7] miss
7365000: system.cpu.dcache: sendMSHRQueuePacket: MSHR ReadReq [94ec0:94ec7]
7365000: system.cpu.dcache: createMissPacket: created ReadSharedReq [94ec0:94eff] from ReadReq [94ec0:94ec7]
7365000: system.l2: access for ReadSharedReq [94ec0:94eff] miss
7375500: system.l2: sendMSHRQueuePacket: MSHR ReadSharedReq [94ec0:94eff]
[...]
i0.defaultMemory.channel0.FRFCFS-WQF.channel0.rank0.bank0.standbyCycles 0
i0.defaultMemory.channel0.FRFCFS-WQF.channel0.rank0.bank0.fastExitActiveCycles 0
i0.defaultMemory.channel0.FRFCFS-WQF.channel0.rank0.bank0.fastExitPrechargeCycles 0
i0.defaultMemory.channel0.FRFCFS-WQF.channel0.rank0.bank0.slowExitPrechargeCycles 0
i0.defaultMemory.channel0.FRFCFS-WQF.channel0.rank0.bank0.actWaits 0
i0.defaultMemory.channel0.FRFCFS-WQF.channel0.rank0.bank0.actWaitTotal 0
i0.defaultMemory.channel0.FRFCFS-WQF.channel0.rank0.bank0.actWaitAverage -nan
i0.defaultMemory.channel0.FRFCFS-WQF.channel0.rank0.bank0.averageEndurance 0
i0.defaultMemory.channel0.FRFCFS-WQF.channel0.rank0.bank0.worstCaseEndurance 18446744073709551615
i0.defaultMemory.channel0.FRFCFS-WQF.channel0.rank0.bank1.subarray0.subArrayEnergy 8.7276nJ
i0.defaultMemory.channel0.FRFCFS-WQF.channel0.rank0.bank1.subarray0.activeEnergy 8.4448nJ
i0.defaultMemory.channel0.FRFCFS-WQF.channel0.rank0.bank1.subarray0.burstEnergy 0.2828nJ
i0.defaultMemory.channel0.FRFCFS-WQF.channel0.rank0.bank1.subarray0.writeEnergy 0nJ
i0.defaultMemory.channel0.FRFCFS-WQF.channel0.rank0.bank1.subarray0.refreshEnergy 0nJ
i0.defaultMemory.channel0.FRFCFS-WQF.channel0.rank0.bank1.subarray0.cancelledWrites 0
i0.defaultMemory.channel0.FRFCFS-WQF.channel0.rank0.bank1.subarray0.cancelledWriteTime 0
i0.defaultMemory.channel0.FRFCFS-WQF.channel0.rank0.bank1.subarray0.pausedWrites 0
i0.defaultMemory.channel0.FRFCFS-WQF.channel0.rank0.bank1.subarray0.averagePausesPerRequest 0
i0.defaultMemory.channel0.FRFCFS-WQF.channel0.rank0.bank1.subarray0.measuredPauses 0
i0.defaultMemory.channel0.FRFCFS-WQF.channel0.rank0.bank1.subarray0.averagePausedRequestProgress 0
i0.defaultMemory.channel0.FRFCFS-WQF.channel0.rank0.bank1.subarray0.measuredProgresses 0
i0.defaultMemory.channel0.FRFCFS-WQF.channel0.rank0.bank1.subarray0.reads 175
i0.defaultMemory.channel0.FRFCFS-WQF.channel0.rank0.bank1.subarray0.writes 0
i0.defaultMemory.channel0.FRFCFS-WQF.channel0.rank0.bank1.subarray0.activates 104
i0.defaultMemory.channel0.FRFCFS-WQF.channel0.rank0.bank1.subarray0.precharges 103
i0.defaultMemory.channel0.FRFCFS-WQF.channel0.rank0.bank1.subarray0.refreshes 0
i0.defaultMemory.channel0.FRFCFS-WQF.channel0.rank0.bank1.subarray0.worstCaseEndurance 18446744073709551615
i0.defaultMemory.channel0.FRFCFS-WQF.channel0.rank0.bank1.subarray0.averageEndurance 0
i0.defaultMemory.channel0.FRFCFS-WQF.channel0.rank0.bank1.subarray0.actWaits 0
i0.defaultMemory.channel0.FRFCFS-WQF.channel0.rank0.bank1.subarray0.actWaitTotal 0
i0.defaultMemory.channel0.FRFCFS-WQF.channel0.rank0.bank1.subarray0.actWaitAverage -nan
i0.defaultMemory.channel0.FRFCFS-WQF.channel0.rank0.bank1.subarray0.worstCaseWrite 0
i0.defaultMemory.channel0.FRFCFS-WQF.channel0.rank0.bank1.subarray0.num00Writes 0
i0.defaultMemory.channel0.FRFCFS-WQF.channel0.rank0.bank1.subarray0.num01Writes 0
i0.defaultMemory.channel0.FRFCFS-WQF.channel0.rank0.bank1.subarray0.num10Writes 0
i0.defaultMemory.channel0.FRFCFS-WQF.channel0.rank0.bank1.subarray0.num11Writes 0
i0.defaultMemory.channel0.FRFCFS-WQF.channel0.rank0.bank1.subarray0.averageWriteTime 0
i0.defaultMemory.channel0.FRFCFS-WQF.channel0.rank0.bank1.subarray0.measuredWriteTimes 0
i0.defaultMemory.channel0.FRFCFS-WQF.channel0.rank0.bank1.subarray0.mlcTimingHisto {}
i0.defaultMemory.channel0.FRFCFS-WQF.channel0.rank0.bank1.subarray0.cancelCountHisto {}
i0.defaultMemory.channel0.FRFCFS-WQF.channel0.rank0.bank1.subarray0.wpPauseHisto {}
i0.defaultMemory.channel0.FRFCFS-WQF.channel0.rank0.bank1.subarray0.wpCancelHisto {}
i0.defaultMemory.channel0.FRFCFS-WQF.channel0.rank0.bank1.bankEnergy 8.7276nJ
i0.defaultMemory.channel0.FRFCFS-WQF.channel0.rank0.bank1.activeEnergy 8.4448nJ
i0.defaultMemory.channel0.FRFCFS-WQF.channel0.rank0.bank1.burstEnergy 0.2828nJ
i0.defaultMemory.channel0.FRFCFS-WQF.channel0.rank0.bank1.refreshEnergy 0nJ
i0.defaultMemory.channel0.FRFCFS-WQF.channel0.rank0.bank1.bankPower 568610W
i0.defaultMemory.channel0.FRFCFS-WQF.channel0.rank0.bank1.activePower 550186W
i0.defaultMemory.channel0.FRFCFS-WQF.channel0.rank0.bank1.burstPower 18424.7W
i0.defaultMemory.channel0.FRFCFS-WQF.channel0.rank0.bank1.refreshPower 0W
i0.defaultMemory.channel0.FRFCFS-WQF.channel0.rank0.bank1.bandwidth 2335.01MB/s
i0.defaultMemory.channel0.FRFCFS-WQF.channel0.rank0.bank1.dataCycles 700
i0.defaultMemory.channel0.FRFCFS-WQF.channel0.rank0.bank1.powerCycles 15349
i0.defaultMemory.channel0.FRFCFS-WQF.channel0.rank0.bank1.utilization 0.0456056
i0.defaultMemory.channel0.FRFCFS-WQF.channel0.rank0.bank1.reads 175
i0.defaultMemory.channel0.FRFCFS-WQF.channel0.rank0.bank1.writes 0
i0.defaultMemory.channel0.FRFCFS-WQF.channel0.rank0.bank1.activates 104
i0.defaultMemory.channel0.FRFCFS-WQF.channel0.rank0.bank1.precharges 103
i0.defaultMemory.channel0.FRFCFS-WQF.channel0.rank0.bank1.refreshes 0
i0.defaultMemory.channel0.FRFCFS-WQF.channel0.rank0.bank1.activeCycles 15280
i0.defaultMemory.channel0.FRFCFS-WQF.channel0.rank0.bank1.standbyCycles 69
i0.defaultMemory.channel0.FRFCFS-WQF.channel0.rank0.bank1.fastExitActiveCycles 0
i0.defaultMemory.channel0.FRFCFS-WQF.channel0.rank0.bank1.fastExitPrechargeCycles 0
i0.defaultMemory.channel0.FRFCFS-WQF.channel0.rank0.bank1.slowExitPrechargeCycles 0
i0.defaultMemory.channel0.FRFCFS-WQF.channel0.rank0.bank1.actWaits 0
i0.defaultMemory.channel0.FRFCFS-WQF.channel0.rank0.bank1.actWaitTotal 0
i0.defaultMemory.channel0.FRFCFS-WQF.channel0.rank0.bank1.actWaitAverage -nan
i0.defaultMemory.channel0.FRFCFS-WQF.channel0.rank0.bank1.averageEndurance 0
i0.defaultMemory.channel0.FRFCFS-WQF.channel0.rank0.bank1.worstCaseEndurance 18446744073709551615
i0.defaultMemory.channel0.FRFCFS-WQF.channel0.rank0.bank2.subarray0.subArrayEnergy 1.61229nJ
i0.defaultMemory.channel0.FRFCFS-WQF.channel0.rank0.bank2.subarray0.activeEnergy 1.5428nJ
i0.defaultMemory.channel0.FRFCFS-WQF.channel0.rank0.bank2.subarray0.burstEnergy 0.069488nJ
i0.defaultMemory.channel0.FRFCFS-WQF.channel0.rank0.bank2.subarray0.writeEnergy 0nJ
i0.defaultMemory.channel0.FRFCFS-WQF.channel0.rank0.bank2.subarray0.refreshEnergy 0nJ
i0.defaultMemory.channel0.FRFCFS-WQF.channel0.rank0.bank2.subarray0.cancelledWrites 0
i0.defaultMemory.channel0.FRFCFS-WQF.channel0.rank0.bank2.subarray0.cancelledWriteTime 0
i0.defaultMemory.channel0.FRFCFS-WQF.channel0.rank0.bank2.subarray0.pausedWrites 0
i0.defaultMemory.channel0.FRFCFS-WQF.channel0.rank0.bank2.subarray0.averagePausesPerRequest 0
i0.defaultMemory.channel0.FRFCFS-WQF.channel0.rank0.bank2.subarray0.measuredPauses 0
i0.defaultMemory.channel0.FRFCFS-WQF.channel0.rank0.bank2.subarray0.averagePausedRequestProgress 0
i0.defaultMemory.channel0.FRFCFS-WQF.channel0.rank0.bank2.subarray0.measuredProgresses 0
i0.defaultMemory.channel0.FRFCFS-WQF.channel0.rank0.bank2.subarray0.reads 43
i0.defaultMemory.channel0.FRFCFS-WQF.channel0.rank0.bank2.subarray0.writes 0
i0.defaultMemory.channel0.FRFCFS-WQF.channel0.rank0.bank2.subarray0.activates 19
i0.defaultMemory.channel0.FRFCFS-WQF.channel0.rank0.bank2.subarray0.precharges 18
i0.defaultMemory.channel0.FRFCFS-WQF.channel0.rank0.bank2.subarray0.refreshes 0
i0.defaultMemory.channel0.FRFCFS-WQF.channel0.rank0.bank2.subarray0.worstCaseEndurance 18446744073709551615
i0.defaultMemory.channel0.FRFCFS-WQF.channel0.rank0.bank2.subarray0.averageEndurance 0
i0.defaultMemory.channel0.FRFCFS-WQF.channel0.rank0.bank2.subarray0.actWaits 0
i0.defaultMemory.channel0.FRFCFS-WQF.channel0.rank0.bank2.subarray0.actWaitTotal 0
i0.defaultMemory.channel0.FRFCFS-WQF.channel0.rank0.bank2.subarray0.actWaitAverage -nan
i0.defaultMemory.channel0.FRFCFS-WQF.channel0.rank0.bank2.subarray0.worstCaseWrite 0
i0.defaultMemory.channel0.FRFCFS-WQF.channel0.rank0.bank2.subarray0.num00Writes 0
i0.defaultMemory.channel0.FRFCFS-WQF.channel0.rank0.bank2.subarray0.num01Writes 0
i0.defaultMemory.channel0.FRFCFS-WQF.channel0.rank0.bank2.subarray0.num10Writes 0
i0.defaultMemory.channel0.FRFCFS-WQF.channel0.rank0.bank2.subarray0.num11Writes 0
i0.defaultMemory.channel0.FRFCFS-WQF.channel0.rank0.bank2.subarray0.averageWriteTime 0
i0.defaultMemory.channel0.FRFCFS-WQF.channel0.rank0.bank2.subarray0.measuredWriteTimes 0
i0.defaultMemory.channel0.FRFCFS-WQF.channel0.rank0.bank2.subarray0.mlcTimingHisto {}
i0.defaultMemory.channel0.FRFCFS-WQF.channel0.rank0.bank2.subarray0.cancelCountHisto {}
i0.defaultMemory.channel0.FRFCFS-WQF.channel0.rank0.bank2.subarray0.wpPauseHisto {}
i0.defaultMemory.channel0.FRFCFS-WQF.channel0.rank0.bank2.subarray0.wpCancelHisto {}
i0.defaultMemory.channel0.FRFCFS-WQF.channel0.rank0.bank2.bankEnergy 1.61229nJ
i0.defaultMemory.channel0.FRFCFS-WQF.channel0.rank0.bank2.activeEnergy 1.5428nJ
i0.defaultMemory.channel0.FRFCFS-WQF.channel0.rank0.bank2.burstEnergy 0.069488nJ
i0.defaultMemory.channel0.FRFCFS-WQF.channel0.rank0.bank2.refreshEnergy 0nJ
i0.defaultMemory.channel0.FRFCFS-WQF.channel0.rank0.bank2.bankPower 105042W
i0.defaultMemory.channel0.FRFCFS-WQF.channel0.rank0.bank2.activePower 100515W
i0.defaultMemory.channel0.FRFCFS-WQF.channel0.rank0.bank2.burstPower 4527.2W
i0.defaultMemory.channel0.FRFCFS-WQF.channel0.rank0.bank2.refreshPower 0W
i0.defaultMemory.channel0.FRFCFS-WQF.channel0.rank0.bank2.bandwidth 573.744MB/s
i0.defaultMemory.channel0.FRFCFS-WQF.channel0.rank0.bank2.dataCycles 172
i0.defaultMemory.channel0.FRFCFS-WQF.channel0.rank0.bank2.powerCycles 15349
i0.defaultMemory.channel0.FRFCFS-WQF.channel0.rank0.bank2.utilization 0.0112059
i0.defaultMemory.channel0.FRFCFS-WQF.channel0.rank0.bank2.reads 43
i0.defaultMemory.channel0.FRFCFS-WQF.channel0.rank0.bank2.writes 0
i0.defaultMemory.channel0.FRFCFS-WQF.channel0.rank0.bank2.activates 19
i0.defaultMemory.channel0.FRFCFS-WQF.channel0.rank0.bank2.precharges 18
i0.defaultMemory.channel0.FRFCFS-WQF.channel0.rank0.bank2.refreshes 0
i0.defaultMemory.channel0.FRFCFS-WQF.channel0.rank0.bank2.activeCycles 7619
i0.defaultMemory.channel0.FRFCFS-WQF.channel0.rank0.bank2.standbyCycles 7730
i0.defaultMemory.channel0.FRFCFS-WQF.channel0.rank0.bank2.fastExitActiveCycles 0
i0.defaultMemory.channel0.FRFCFS-WQF.channel0.rank0.bank2.fastExitPrechargeCycles 0
i0.defaultMemory.channel0.FRFCFS-WQF.channel0.rank0.bank2.slowExitPrechargeCycles 0
i0.defaultMemory.channel0.FRFCFS-WQF.channel0.rank0.bank2.actWaits 0
i0.defaultMemory.channel0.FRFCFS-WQF.channel0.rank0.bank2.actWaitTotal 0
i0.defaultMemory.channel0.FRFCFS-WQF.channel0.rank0.bank2.actWaitAverage -nan
i0.defaultMemory.channel0.FRFCFS-WQF.channel0.rank0.bank2.averageEndurance 0
i0.defaultMemory.channel0.FRFCFS-WQF.channel0.rank0.bank2.worstCaseEndurance 18446744073709551615
i0.defaultMemory.channel0.FRFCFS-WQF.channel0.rank0.bank3.subarray0.subArrayEnergy 1.09115nJ
i0.defaultMemory.channel0.FRFCFS-WQF.channel0.rank0.bank3.subarray0.activeEnergy 1.0556nJ
i0.defaultMemory.channel0.FRFCFS-WQF.channel0.rank0.bank3.subarray0.burstEnergy 0.035552nJ
i0.defaultMemory.channel0.FRFCFS-WQF.channel0.rank0.bank3.subarray0.writeEnergy 0nJ
i0.defaultMemory.channel0.FRFCFS-WQF.channel0.rank0.bank3.subarray0.refreshEnergy 0nJ
i0.defaultMemory.channel0.FRFCFS-WQF.channel0.rank0.bank3.subarray0.cancelledWrites 0
i0.defaultMemory.channel0.FRFCFS-WQF.channel0.rank0.bank3.subarray0.cancelledWriteTime 0
i0.defaultMemory.channel0.FRFCFS-WQF.channel0.rank0.bank3.subarray0.pausedWrites 0
i0.defaultMemory.channel0.FRFCFS-WQF.channel0.rank0.bank3.subarray0.averagePausesPerRequest 0
i0.defaultMemory.channel0.FRFCFS-WQF.channel0.rank0.bank3.subarray0.measuredPauses 0
i0.defaultMemory.channel0.FRFCFS-WQF.channel0.rank0.bank3.subarray0.averagePausedRequestProgress 0
i0.defaultMemory.channel0.FRFCFS-WQF.channel0.rank0.bank3.subarray0.measuredProgresses 0
i0.defaultMemory.channel0.FRFCFS-WQF.channel0.rank0.bank3.subarray0.reads 22
i0.defaultMemory.channel0.FRFCFS-WQF.channel0.rank0.bank3.subarray0.writes 0
i0.defaultMemory.channel0.FRFCFS-WQF.channel0.rank0.bank3.subarray0.activates 13
i0.defaultMemory.channel0.FRFCFS-WQF.channel0.rank0.bank3.subarray0.precharges 12
i0.defaultMemory.channel0.FRFCFS-WQF.channel0.rank0.bank3.subarray0.refreshes 0
i0.defaultMemory.channel0.FRFCFS-WQF.channel0.rank0.bank3.subarray0.worstCaseEndurance 18446744073709551615
i0.defaultMemory.channel0.FRFCFS-WQF.channel0.rank0.bank3.subarray0.averageEndurance 0
i0.defaultMemory.channel0.FRFCFS-WQF.channel0.rank0.bank3.subarray0.actWaits 0
i0.defaultMemory.channel0.FRFCFS-WQF.channel0.rank0.bank3.subarray0.actWaitTotal 0
i0.defaultMemory.channel0.FRFCFS-WQF.channel0.rank0.bank3.subarray0.actWaitAverage -nan
i0.defaultMemory.channel0.FRFCFS-WQF.channel0.rank0.bank3.subarray0.worstCaseWrite 0
i0.defaultMemory.channel0.FRFCFS-WQF.channel0.rank0.bank3.subarray0.num00Writes 0
i0.defaultMemory.channel0.FRFCFS-WQF.channel0.rank0.bank3.subarray0.num01Writes 0
i0.defaultMemory.channel0.FRFCFS-WQF.channel0.rank0.bank3.subarray0.num10Writes 0
i0.defaultMemory.channel0.FRFCFS-WQF.channel0.rank0.bank3.subarray0.num11Writes 0
i0.defaultMemory.channel0.FRFCFS-WQF.channel0.rank0.bank3.subarray0.averageWriteTime 0
i0.defaultMemory.channel0.FRFCFS-WQF.channel0.rank0.bank3.subarray0.measuredWriteTimes 0
i0.defaultMemory.channel0.FRFCFS-WQF.channel0.rank0.bank3.subarray0.mlcTimingHisto {}
i0.defaultMemory.channel0.FRFCFS-WQF.channel0.rank0.bank3.subarray0.cancelCountHisto {}
i0.defaultMemory.channel0.FRFCFS-WQF.channel0.rank0.bank3.subarray0.wpPauseHisto {}
i0.defaultMemory.channel0.FRFCFS-WQF.channel0.rank0.bank3.subarray0.wpCancelHisto {}
i0.defaultMemory.channel0.FRFCFS-WQF.channel0.rank0.bank3.bankEnergy 1.09115nJ
i0.defaultMemory.channel0.FRFCFS-WQF.channel0.rank0.bank3.activeEnergy 1.0556nJ
i0.defaultMemory.channel0.FRFCFS-WQF.channel0.rank0.bank3.burstEnergy 0.035552nJ
i0.defaultMemory.channel0.FRFCFS-WQF.channel0.rank0.bank3.refreshEnergy 0nJ
i0.defaultMemory.channel0.FRFCFS-WQF.channel0.rank0.bank3.bankPower 71089.5W
i0.defaultMemory.channel0.FRFCFS-WQF.channel0.rank0.bank3.activePower 68773.2W
i0.defaultMemory.channel0.FRFCFS-WQF.channel0.rank0.bank3.burstPower 2316.24W
i0.defaultMemory.channel0.FRFCFS-WQF.channel0.rank0.bank3.refreshPower 0W
i0.defaultMemory.channel0.FRFCFS-WQF.channel0.rank0.bank3.bandwidth 293.544MB/s
i0.defaultMemory.channel0.FRFCFS-WQF.channel0.rank0.bank3.dataCycles 88
i0.defaultMemory.channel0.FRFCFS-WQF.channel0.rank0.bank3.powerCycles 15349
i0.defaultMemory.channel0.FRFCFS-WQF.channel0.rank0.bank3.utilization 0.00573327
i0.defaultMemory.channel0.FRFCFS-WQF.channel0.rank0.bank3.reads 22
i0.defaultMemory.channel0.FRFCFS-WQF.channel0.rank0.bank3.writes 0
i0.defaultMemory.channel0.FRFCFS-WQF.channel0.rank0.bank3.activates 13
i0.defaultMemory.channel0.FRFCFS-WQF.channel0.rank0.bank3.precharges 12
i0.defaultMemory.channel0.FRFCFS-WQF.channel0.rank0.bank3.refreshes 0
i0.defaultMemory.channel0.FRFCFS-WQF.channel0.rank0.bank3.activeCycles 14957
i0.defaultMemory.channel0.FRFCFS-WQF.channel0.rank0.bank3.standbyCycles 392
i0.defaultMemory.channel0.FRFCFS-WQF.channel0.rank0.bank3.fastExitActiveCycles 0
i0.defaultMemory.channel0.FRFCFS-WQF.channel0.rank0.bank3.fastExitPrechargeCycles 0
i0.defaultMemory.channel0.FRFCFS-WQF.channel0.rank0.bank3.slowExitPrechargeCycles 0
i0.defaultMemory.channel0.FRFCFS-WQF.channel0.rank0.bank3.actWaits 0
i0.defaultMemory.channel0.FRFCFS-WQF.channel0.rank0.bank3.actWaitTotal 0
i0.defaultMemory.channel0.FRFCFS-WQF.channel0.rank0.bank3.actWaitAverage -nan
i0.defaultMemory.channel0.FRFCFS-WQF.channel0.rank0.bank3.averageEndurance 0
i0.defaultMemory.channel0.FRFCFS-WQF.channel0.rank0.bank3.worstCaseEndurance 18446744073709551615
i0.defaultMemory.channel0.FRFCFS-WQF.channel0.rank0.totalEnergy 1414.33nJ
i0.defaultMemory.channel0.FRFCFS-WQF.channel0.rank0.backgroundEnergy 1382.79nJ
i0.defaultMemory.channel0.FRFCFS-WQF.channel0.rank0.activateEnergy 15.1844nJ
i0.defaultMemory.channel0.FRFCFS-WQF.channel0.rank0.burstEnergy 0.583376nJ
i0.defaultMemory.channel0.FRFCFS-WQF.channel0.rank0.refreshEnergy 0nJ
i0.defaultMemory.channel0.FRFCFS-WQF.channel0.rank0.totalPower 0.0364469W
i0.defaultMemory.channel0.FRFCFS-WQF.channel0.rank0.backgroundPower 0.036036W
i0.defaultMemory.channel0.FRFCFS-WQF.channel0.rank0.activatePower 0.00039571W
i0.defaultMemory.channel0.FRFCFS-WQF.channel0.rank0.burstPower 1.5203e-05W
i0.defaultMemory.channel0.FRFCFS-WQF.channel0.rank0.refreshPower 0W
i0.defaultMemory.channel0.FRFCFS-WQF.channel0.rank0.reads 361
i0.defaultMemory.channel0.FRFCFS-WQF.channel0.rank0.writes 0
i0.defaultMemory.channel0.FRFCFS-WQF.channel0.rank0.activeCycles 15349
i0.defaultMemory.channel0.FRFCFS-WQF.channel0.rank0.standbyCycles 0
i0.defaultMemory.channel0.FRFCFS-WQF.channel0.rank0.fastExitActiveCycles 0
i0.defaultMemory.channel0.FRFCFS-WQF.channel0.rank0.fastExitPrechargeCycles 0
i0.defaultMemory.channel0.FRFCFS-WQF.channel0.rank0.slowExitCycles 0
i0.defaultMemory.channel0.FRFCFS-WQF.channel0.rank0.actWaits 0
i0.defaultMemory.channel0.FRFCFS-WQF.channel0.rank0.actWaitTotal 0
i0.defaultMemory.channel0.FRFCFS-WQF.channel0.rank0.actWaitAverage -nan
i0.defaultMemory.channel0.FRFCFS-WQF.channel0.rank0.rrdWaits 1
i0.defaultMemory.channel0.FRFCFS-WQF.channel0.rank0.rrdWaitTotal 3
i0.defaultMemory.channel0.FRFCFS-WQF.channel0.rank0.rrdWaitAverage 3
i0.defaultMemory.channel0.FRFCFS-WQF.channel0.rank0.fawWaits 1
i0.defaultMemory.channel0.FRFCFS-WQF.channel0.rank0.fawWaitTotal 19
i0.defaultMemory.channel0.FRFCFS-WQF.channel0.rank0.fawWaitAverage 19
i0.defaultMemory.channel0.FRFCFS-WQF.mem_reads 361
i0.defaultMemory.channel0.FRFCFS-WQF.mem_writes 0
i0.defaultMemory.channel0.FRFCFS-WQF.rq_rb_hits 174
i0.defaultMemory.channel0.FRFCFS-WQF.rq_rb_miss 187
i0.defaultMemory.channel0.FRFCFS-WQF.wq_rb_hits 0
i0.defaultMemory.channel0.FRFCFS-WQF.wq_rb_miss 0
i0.defaultMemory.channel0.FRFCFS-WQF.total_drains 0
i0.defaultMemory.channel0.FRFCFS-WQF.total_drain_writes 0
i0.defaultMemory.channel0.FRFCFS-WQF.average_writes_per_drain 0
i0.defaultMemory.channel0.FRFCFS-WQF.minimum_drain_writes 10000000000
i0.defaultMemory.channel0.FRFCFS-WQF.maximum_drain_writes 0
i0.defaultMemory.channel0.FRFCFS-WQF.total_drain_cycles 0
i0.defaultMemory.channel0.FRFCFS-WQF.average_drain_cycles 0
i0.defaultMemory.channel0.FRFCFS-WQF.minimum_drain_cycles 10000000000
i0.defaultMemory.channel0.FRFCFS-WQF.maximum_drain_cycles 0
i0.defaultMemory.channel0.FRFCFS-WQF.total_non_drain_cycles 0
i0.defaultMemory.channel0.FRFCFS-WQF.average_drain_spacing 0
i0.defaultMemory.channel0.FRFCFS-WQF.minimum_drain_spacing 10000000000
i0.defaultMemory.channel0.FRFCFS-WQF.maximum_drain_spacing 0
i0.defaultMemory.channel0.FRFCFS-WQF.total_read_cycles 0
i0.defaultMemory.channel0.FRFCFS-WQF.average_read_spacing 0
i0.defaultMemory.channel0.FRFCFS-WQF.minimum_read_spacing 10000000000
i0.defaultMemory.channel0.FRFCFS-WQF.maximum_read_spacing 0
i0.defaultMemory.channel0.FRFCFS-WQF.total_readqueue_size 0
i0.defaultMemory.channel0.FRFCFS-WQF.average_predrain_readqueue_size 0
i0.defaultMemory.channel0.FRFCFS-WQF.minimum_predrain_readqueue_size 10000000000
i0.defaultMemory.channel0.FRFCFS-WQF.maximum_predrain_readqueue_size 0
i0.defaultMemory.channel0.FRFCFS-WQF.total_reads_during_drain 0
i0.defaultMemory.channel0.FRFCFS-WQF.average_reads_during_drain 0
i0.defaultMemory.channel0.FRFCFS-WQF.minimum_reads_during_drain 10000000000
i0.defaultMemory.channel0.FRFCFS-WQF.maximum_reads_during_drain 0
i0.defaultMemory.channel0.FRFCFS-WQF.starvation_precharges 11
i0.defaultMemory.channel0.FRFCFS-WQF.averageLatency 40.4238
i0.defaultMemory.channel0.FRFCFS-WQF.averageQueueLatency 1
i0.defaultMemory.channel0.FRFCFS-WQF.averageTotalLatency 41.4238
i0.defaultMemory.channel0.FRFCFS-WQF.measuredLatencies 361
i0.defaultMemory.channel0.FRFCFS-WQF.measuredQueueLatencies 361
i0.defaultMemory.channel0.FRFCFS-WQF.measuredTotalLatencies 361
i0.defaultMemory.channel0.FRFCFS-WQF.simulation_cycles 15349
i0.defaultMemory.channel0.FRFCFS-WQF.wakeupCount 919
i0.defaultMemory.totalReadRequests 361
i0.defaultMemory.totalWriteRequests 0
i0.defaultMemory.successfulPrefetches 0
i0.defaultMemory.unsuccessfulPrefetches 0
