
---------- Begin Simulation Statistics ----------
sim_seconds                                  1.081641                       # Number of seconds simulated
sim_ticks                                1081640817000                       # Number of ticks simulated
final_tick                               1081640817000                       # Number of ticks from beginning of simulation (restored from checkpoints and never reset)
sim_freq                                 1000000000000                       # Frequency of simulated ticks
host_inst_rate                                 945703                       # Simulator instruction rate (inst/s)
host_op_rate                                  1516041                       # Simulator op (including micro ops) rate (op/s)
host_tick_rate                             1994923871                       # Simulator tick rate (ticks/s)
host_mem_usage                                 661296                       # Number of bytes of host memory used
host_seconds                                   542.20                       # Real time elapsed on the host
sim_insts                                   512756661                       # Number of instructions simulated
sim_ops                                     821992347                       # Number of ops (including micro ops) simulated
system.voltage_domain.voltage                       1                       # Voltage in Volts
system.clk_domain.clock                          1000                       # Clock period in ticks
system.mem_ctrls.pwrStateResidencyTicks::UNDEFINED 1081640817000                       # Cumulative time (in ticks) in various power states
system.mem_ctrls.bytes_read::cpu.inst           25920                       # Number of bytes read from this memory
system.mem_ctrls.bytes_read::cpu.data        17272832                       # Number of bytes read from this memory
system.mem_ctrls.bytes_read::total           17298752                       # Number of bytes read from this memory
system.mem_ctrls.bytes_inst_read::cpu.inst        25920                       # Number of instructions bytes read from this memory
system.mem_ctrls.bytes_inst_read::total         25920                       # Number of instructions bytes read from this memory
system.mem_ctrls.bytes_written::writebacks     15839296                       # Number of bytes written to this memory
system.mem_ctrls.bytes_written::total        15839296                       # Number of bytes written to this memory
system.mem_ctrls.num_reads::cpu.inst              405                       # Number of read requests responded to by this memory
system.mem_ctrls.num_reads::cpu.data           269888                       # Number of read requests responded to by this memory
system.mem_ctrls.num_reads::total              270293                       # Number of read requests responded to by this memory
system.mem_ctrls.num_writes::writebacks        247489                       # Number of write requests responded to by this memory
system.mem_ctrls.num_writes::total             247489                       # Number of write requests responded to by this memory
system.mem_ctrls.bw_read::cpu.inst              23964                       # Total read bandwidth from this memory (bytes/s)
system.mem_ctrls.bw_read::cpu.data           15969102                       # Total read bandwidth from this memory (bytes/s)
system.mem_ctrls.bw_read::total              15993065                       # Total read bandwidth from this memory (bytes/s)
system.mem_ctrls.bw_inst_read::cpu.inst         23964                       # Instruction read bandwidth from this memory (bytes/s)
system.mem_ctrls.bw_inst_read::total            23964                       # Instruction read bandwidth from this memory (bytes/s)
system.mem_ctrls.bw_write::writebacks        14643767                       # Write bandwidth from this memory (bytes/s)
system.mem_ctrls.bw_write::total             14643767                       # Write bandwidth from this memory (bytes/s)
system.mem_ctrls.bw_total::writebacks        14643767                       # Total bandwidth to/from this memory (bytes/s)
system.mem_ctrls.bw_total::cpu.inst             23964                       # Total bandwidth to/from this memory (bytes/s)
system.mem_ctrls.bw_total::cpu.data          15969102                       # Total bandwidth to/from this memory (bytes/s)
system.mem_ctrls.bw_total::total             30636832                       # Total bandwidth to/from this memory (bytes/s)
system.pwrStateResidencyTicks::UNDEFINED 1081640817000                       # Cumulative time (in ticks) in various power states
system.cpu_voltage_domain.voltage                   1                       # Voltage in Volts
system.cpu_clk_domain.clock                       500                       # Clock period in ticks
system.cpu.dtb.walker.pwrStateResidencyTicks::UNDEFINED 1081640817000                       # Cumulative time (in ticks) in various power states
system.cpu.dtb.rdAccesses                   238247394                       # TLB accesses on read requests
system.cpu.dtb.wrAccesses                    64375961                       # TLB accesses on write requests
system.cpu.dtb.rdMisses                          6899                       # TLB misses on read requests
system.cpu.dtb.wrMisses                           940                       # TLB misses on write requests
system.cpu.apic_clk_domain.clock                 8000                       # Clock period in ticks
system.cpu.interrupts.pwrStateResidencyTicks::UNDEFINED 1081640817000                       # Cumulative time (in ticks) in various power states
system.cpu.itb.walker.pwrStateResidencyTicks::UNDEFINED 1081640817000                       # Cumulative time (in ticks) in various power states
system.cpu.itb.rdAccesses                           0                       # TLB accesses on read requests
system.cpu.itb.wrAccesses                   657337158                       # TLB accesses on write requests
system.cpu.itb.rdMisses                             0                       # TLB misses on read requests
system.cpu.itb.wrMisses                            38                       # TLB misses on write requests
system.cpu.workload.numSyscalls                    10                       # Number of system calls
system.cpu.pwrStateResidencyTicks::ON    1081640817000                       # Cumulative time (in ticks) in various power states
system.cpu.numCycles                       2163281634                       # number of cpu cycles simulated
system.cpu.numWorkItemsStarted                      0                       # number of work items this cpu started
system.cpu.numWorkItemsCompleted                    0                       # number of work items this cpu completed
system.cpu.committedInsts                   512756661                       # Number of instructions committed
system.cpu.committedOps                     821992347                       # Number of ops (including micro ops) committed
system.cpu.num_int_alu_accesses             809450710                       # Number of integer alu accesses
system.cpu.num_fp_alu_accesses                7001133                       # Number of float alu accesses
system.cpu.num_vec_alu_accesses                     0                       # Number of vector alu accesses
system.cpu.num_func_calls                     9452878                       # number of times a function call or return occured
system.cpu.num_conditional_control_insts     44567282                       # number of instructions that are conditional controls
system.cpu.num_int_insts                    809450710                       # number of integer instructions
system.cpu.num_fp_insts                       7001133                       # number of float instructions
system.cpu.num_vec_insts                            0                       # number of vector instructions
system.cpu.num_int_register_reads          1820622521                       # number of times the integer registers were read
system.cpu.num_int_register_writes          701623659                       # number of times the integer registers were written
system.cpu.num_fp_register_reads              6001309                       # number of times the floating registers were read
system.cpu.num_fp_register_writes             5000633                       # number of times the floating registers were written
system.cpu.num_vec_register_reads                   0                       # number of times the vector registers were read
system.cpu.num_vec_register_writes                  0                       # number of times the vector registers were written
system.cpu.num_cc_register_reads            288565900                       # number of times the CC registers were read
system.cpu.num_cc_register_writes           279912373                       # number of times the CC registers were written
system.cpu.num_mem_refs                     302623352                       # number of memory refs
system.cpu.num_load_insts                   238247391                       # Number of load instructions
system.cpu.num_store_insts                   64375961                       # Number of store instructions
system.cpu.num_idle_cycles                          0                       # Number of idle cycles
system.cpu.num_busy_cycles                 2163281634                       # Number of busy cycles
system.cpu.not_idle_fraction                        1                       # Percentage of non-idle cycles
system.cpu.idle_fraction                            0                       # Percentage of idle cycles
system.cpu.Branches                          59709115                       # Number of branches fetched
system.cpu.op_class::No_OpClass               6088586      0.74%      0.74% # Class of executed instruction
system.cpu.op_class::IntAlu                 500831861     60.93%     61.67% # Class of executed instruction
system.cpu.op_class::IntMult                        5      0.00%     61.67% # Class of executed instruction
system.cpu.op_class::IntDiv                   8448053      1.03%     62.70% # Class of executed instruction
system.cpu.op_class::FloatAdd                 2000135      0.24%     62.94% # Class of executed instruction
system.cpu.op_class::FloatCmp                       0      0.00%     62.94% # Class of executed instruction
system.cpu.op_class::FloatCvt                       0      0.00%     62.94% # Class of executed instruction
system.cpu.op_class::FloatMult                      0      0.00%     62.94% # Class of executed instruction
system.cpu.op_class::FloatMultAcc                   0      0.00%     62.94% # Class of executed instruction
system.cpu.op_class::FloatDiv                       0      0.00%     62.94% # Class of executed instruction
system.cpu.op_class::FloatMisc                      0      0.00%     62.94% # Class of executed instruction
system.cpu.op_class::FloatSqrt                      0      0.00%     62.94% # Class of executed instruction
system.cpu.op_class::SimdAdd                        0      0.00%     62.94% # Class of executed instruction
system.cpu.op_class::SimdAddAcc                     0      0.00%     62.94% # Class of executed instruction
system.cpu.op_class::SimdAlu                       94      0.00%     62.94% # Class of executed instruction
system.cpu.op_class::SimdCmp                        0      0.00%     62.94% # Class of executed instruction
system.cpu.op_class::SimdCvt                       46      0.00%     62.94% # Class of executed instruction
system.cpu.op_class::SimdMisc                 2000215      0.24%     63.18% # Class of executed instruction
system.cpu.op_class::SimdMult                       0      0.00%     63.18% # Class of executed instruction
system.cpu.op_class::SimdMultAcc                    0      0.00%     63.18% # Class of executed instruction
system.cpu.op_class::SimdShift                      0      0.00%     63.18% # Class of executed instruction
system.cpu.op_class::SimdShiftAcc                   0      0.00%     63.18% # Class of executed instruction
system.cpu.op_class::SimdSqrt                       0      0.00%     63.18% # Class of executed instruction
system.cpu.op_class::SimdFloatAdd                   0      0.00%     63.18% # Class of executed instruction
system.cpu.op_class::SimdFloatAlu                   0      0.00%     63.18% # Class of executed instruction
system.cpu.op_class::SimdFloatCmp                   0      0.00%     63.18% # Class of executed instruction
system.cpu.op_class::SimdFloatCvt                   0      0.00%     63.18% # Class of executed instruction
system.cpu.op_class::SimdFloatDiv                   0      0.00%     63.18% # Class of executed instruction
system.cpu.op_class::SimdFloatMisc                  0      0.00%     63.18% # Class of executed instruction
system.cpu.op_class::SimdFloatMult                  0      0.00%     63.18% # Class of executed instruction
system.cpu.op_class::SimdFloatMultAcc               0      0.00%     63.18% # Class of executed instruction
system.cpu.op_class::SimdFloatSqrt                  0      0.00%     63.18% # Class of executed instruction
system.cpu.op_class::MemRead                238247341     28.98%     92.17% # Class of executed instruction
system.cpu.op_class::MemWrite                62375507      7.59%     99.76% # Class of executed instruction
system.cpu.op_class::FloatMemRead                  50      0.00%     99.76% # Class of executed instruction
system.cpu.op_class::FloatMemWrite            2000454      0.24%    100.00% # Class of executed instruction
system.cpu.op_class::IprAccess                      0      0.00%    100.00% # Class of executed instruction
system.cpu.op_class::InstPrefetch                   0      0.00%    100.00% # Class of executed instruction
system.cpu.op_class::total                  821992347                       # Class of executed instruction
system.cpu.dcache.tags.pwrStateResidencyTicks::UNDEFINED 1081640817000                       # Cumulative time (in ticks) in various power states
system.cpu.dcache.tags.tagsinuse           511.675744                       # Cycle average of tags in use
system.cpu.dcache.tags.total_refs           302623355                       # Total number of references to valid blocks.
system.cpu.dcache.tags.sampled_refs            683428                       # Sample count of references to valid blocks.
system.cpu.dcache.tags.avg_refs            442.802102                       # Average number of references to valid blocks.
system.cpu.dcache.tags.warmup_cycle            764000                       # Cycle when the warmup percentage was hit.
system.cpu.dcache.tags.occ_blocks::cpu.data   511.675744                       # Average occupied blocks per requestor
system.cpu.dcache.tags.occ_percent::cpu.data     0.999367                       # Average percentage of cache occupancy
system.cpu.dcache.tags.occ_percent::total     0.999367                       # Average percentage of cache occupancy
system.cpu.dcache.tags.occ_task_id_blocks::1024          512                       # Occupied blocks per task id
system.cpu.dcache.tags.age_task_id_blocks_1024::0            6                       # Occupied blocks per task id
system.cpu.dcache.tags.age_task_id_blocks_1024::1           24                       # Occupied blocks per task id
system.cpu.dcache.tags.age_task_id_blocks_1024::2           53                       # Occupied blocks per task id
system.cpu.dcache.tags.age_task_id_blocks_1024::3          421                       # Occupied blocks per task id
system.cpu.dcache.tags.age_task_id_blocks_1024::4            8                       # Occupied blocks per task id
system.cpu.dcache.tags.occ_task_id_percent::1024            1                       # Percentage of cache occupancy per task id
system.cpu.dcache.tags.tag_accesses         605930138                       # Number of tag accesses
system.cpu.dcache.tags.data_accesses        605930138                       # Number of data accesses
system.cpu.dcache.pwrStateResidencyTicks::UNDEFINED 1081640817000                       # Cumulative time (in ticks) in various power states
system.cpu.dcache.ReadReq_hits::cpu.data    237630436                       # number of ReadReq hits
system.cpu.dcache.ReadReq_hits::total       237630436                       # number of ReadReq hits
system.cpu.dcache.WriteReq_hits::cpu.data     64079361                       # number of WriteReq hits
system.cpu.dcache.WriteReq_hits::total       64079361                       # number of WriteReq hits
system.cpu.dcache.demand_hits::cpu.data     301709797                       # number of demand (read+write) hits
system.cpu.dcache.demand_hits::total        301709797                       # number of demand (read+write) hits
system.cpu.dcache.overall_hits::cpu.data    301709797                       # number of overall hits
system.cpu.dcache.overall_hits::total       301709797                       # number of overall hits
system.cpu.dcache.ReadReq_misses::cpu.data       616958                       # number of ReadReq misses
system.cpu.dcache.ReadReq_misses::total        616958                       # number of ReadReq misses
system.cpu.dcache.WriteReq_misses::cpu.data       296600                       # number of WriteReq misses
system.cpu.dcache.WriteReq_misses::total       296600                       # number of WriteReq misses
system.cpu.dcache.demand_misses::cpu.data       913558                       # number of demand (read+write) misses
system.cpu.dcache.demand_misses::total         913558                       # number of demand (read+write) misses
system.cpu.dcache.overall_misses::cpu.data       913558                       # number of overall misses
system.cpu.dcache.overall_misses::total        913558                       # number of overall misses
system.cpu.dcache.ReadReq_miss_latency::cpu.data  99154205500                       # number of ReadReq miss cycles
system.cpu.dcache.ReadReq_miss_latency::total  99154205500                       # number of ReadReq miss cycles
system.cpu.dcache.WriteReq_miss_latency::cpu.data  23353835500                       # number of WriteReq miss cycles
system.cpu.dcache.WriteReq_miss_latency::total  23353835500                       # number of WriteReq miss cycles
system.cpu.dcache.demand_miss_latency::cpu.data 122508041000                       # number of demand (read+write) miss cycles
system.cpu.dcache.demand_miss_latency::total 122508041000                       # number of demand (read+write) miss cycles
system.cpu.dcache.overall_miss_latency::cpu.data 122508041000                       # number of overall miss cycles
system.cpu.dcache.overall_miss_latency::total 122508041000                       # number of overall miss cycles
system.cpu.dcache.ReadReq_accesses::cpu.data    238247394                       # number of ReadReq accesses(hits+misses)
system.cpu.dcache.ReadReq_accesses::total    238247394                       # number of ReadReq accesses(hits+misses)
system.cpu.dcache.WriteReq_accesses::cpu.data     64375961                       # number of WriteReq accesses(hits+misses)
system.cpu.dcache.WriteReq_accesses::total     64375961                       # number of WriteReq accesses(hits+misses)
system.cpu.dcache.demand_accesses::cpu.data    302623355                       # number of demand (read+write) accesses
system.cpu.dcache.demand_accesses::total    302623355                       # number of demand (read+write) accesses
system.cpu.dcache.overall_accesses::cpu.data    302623355                       # number of overall (read+write) accesses
system.cpu.dcache.overall_accesses::total    302623355                       # number of overall (read+write) accesses
system.cpu.dcache.ReadReq_miss_rate::cpu.data     0.002590                       # miss rate for ReadReq accesses
system.cpu.dcache.ReadReq_miss_rate::total     0.002590                       # miss rate for ReadReq accesses
system.cpu.dcache.WriteReq_miss_rate::cpu.data     0.004607                       # miss rate for WriteReq accesses
system.cpu.dcache.WriteReq_miss_rate::total     0.004607                       # miss rate for WriteReq accesses
system.cpu.dcache.demand_miss_rate::cpu.data     0.003019                       # miss rate for demand accesses
system.cpu.dcache.demand_miss_rate::total     0.003019                       # miss rate for demand accesses
system.cpu.dcache.overall_miss_rate::cpu.data     0.003019                       # miss rate for overall accesses
system.cpu.dcache.overall_miss_rate::total     0.003019                       # miss rate for overall accesses
system.cpu.dcache.ReadReq_avg_miss_latency::cpu.data 160714.676688                       # average ReadReq miss latency
system.cpu.dcache.ReadReq_avg_miss_latency::total 160714.676688                       # average ReadReq miss latency
system.cpu.dcache.WriteReq_avg_miss_latency::cpu.data 78738.487862                       # average WriteReq miss latency
system.cpu.dcache.WriteReq_avg_miss_latency::total 78738.487862                       # average WriteReq miss latency
system.cpu.dcache.demand_avg_miss_latency::cpu.data 134099.904987                       # average overall miss latency
system.cpu.dcache.demand_avg_miss_latency::total 134099.904987                       # average overall miss latency
system.cpu.dcache.overall_avg_miss_latency::cpu.data 134099.904987                       # average overall miss latency
system.cpu.dcache.overall_avg_miss_latency::total 134099.904987                       # average overall miss latency
system.cpu.dcache.blocked_cycles::no_mshrs            0                       # number of cycles access was blocked
system.cpu.dcache.blocked_cycles::no_targets            0                       # number of cycles access was blocked
system.cpu.dcache.blocked::no_mshrs                 0                       # number of cycles access was blocked
system.cpu.dcache.blocked::no_targets               0                       # number of cycles access was blocked
system.cpu.dcache.avg_blocked_cycles::no_mshrs          nan                       # average number of cycles each access was blocked
system.cpu.dcache.avg_blocked_cycles::no_targets          nan                       # average number of cycles each access was blocked
system.cpu.dcache.writebacks::writebacks       658295                       # number of writebacks
system.cpu.dcache.writebacks::total            658295                       # number of writebacks
system.cpu.dcache.ReadReq_mshr_misses::cpu.data       616958                       # number of ReadReq MSHR misses
system.cpu.dcache.ReadReq_mshr_misses::total       616958                       # number of ReadReq MSHR misses
system.cpu.dcache.WriteReq_mshr_misses::cpu.data       296600                       # number of WriteReq MSHR misses
system.cpu.dcache.WriteReq_mshr_misses::total       296600                       # number of WriteReq MSHR misses
system.cpu.dcache.demand_mshr_misses::cpu.data       913558                       # number of demand (read+write) MSHR misses
system.cpu.dcache.demand_mshr_misses::total       913558                       # number of demand (read+write) MSHR misses
system.cpu.dcache.overall_mshr_misses::cpu.data       913558                       # number of overall MSHR misses
system.cpu.dcache.overall_mshr_misses::total       913558                       # number of overall MSHR misses
system.cpu.dcache.ReadReq_mshr_miss_latency::cpu.data  98537247500                       # number of ReadReq MSHR miss cycles
system.cpu.dcache.ReadReq_mshr_miss_latency::total  98537247500                       # number of ReadReq MSHR miss cycles
system.cpu.dcache.WriteReq_mshr_miss_latency::cpu.data  23057235500                       # number of WriteReq MSHR miss cycles
system.cpu.dcache.WriteReq_mshr_miss_latency::total  23057235500                       # number of WriteReq MSHR miss cycles
system.cpu.dcache.demand_mshr_miss_latency::cpu.data 121594483000                       # number of demand (read+write) MSHR miss cycles
system.cpu.dcache.demand_mshr_miss_latency::total 121594483000                       # number of demand (read+write) MSHR miss cycles
system.cpu.dcache.overall_mshr_miss_latency::cpu.data 121594483000                       # number of overall MSHR miss cycles
system.cpu.dcache.overall_mshr_miss_latency::total 121594483000                       # number of overall MSHR miss cycles
system.cpu.dcache.ReadReq_mshr_miss_rate::cpu.data     0.002590                       # mshr miss rate for ReadReq accesses
system.cpu.dcache.ReadReq_mshr_miss_rate::total     0.002590                       # mshr miss rate for ReadReq accesses
system.cpu.dcache.WriteReq_mshr_miss_rate::cpu.data     0.004607                       # mshr miss rate for WriteReq accesses
system.cpu.dcache.WriteReq_mshr_miss_rate::total     0.004607                       # mshr miss rate for WriteReq accesses
system.cpu.dcache.demand_mshr_miss_rate::cpu.data     0.003019                       # mshr miss rate for demand accesses
system.cpu.dcache.demand_mshr_miss_rate::total     0.003019                       # mshr miss rate for demand accesses
system.cpu.dcache.overall_mshr_miss_rate::cpu.data     0.003019                       # mshr miss rate for overall accesses
system.cpu.dcache.overall_mshr_miss_rate::total     0.003019                       # mshr miss rate for overall accesses
system.cpu.dcache.ReadReq_avg_mshr_miss_latency::cpu.data 159714.676688                       # average ReadReq mshr miss latency
system.cpu.dcache.ReadReq_avg_mshr_miss_latency::total 159714.676688                       # average ReadReq mshr miss latency
system.cpu.dcache.WriteReq_avg_mshr_miss_latency::cpu.data 77738.487862                       # average WriteReq mshr miss latency
system.cpu.dcache.WriteReq_avg_mshr_miss_latency::total 77738.487862                       # average WriteReq mshr miss latency
system.cpu.dcache.demand_avg_mshr_miss_latency::cpu.data 133099.904987                       # average overall mshr miss latency
system.cpu.dcache.demand_avg_mshr_miss_latency::total 133099.904987                       # average overall mshr miss latency
system.cpu.dcache.overall_avg_mshr_miss_latency::cpu.data 133099.904987                       # average overall mshr miss latency
system.cpu.dcache.overall_avg_mshr_miss_latency::total 133099.904987                       # average overall mshr miss latency
system.cpu.dcache.replacements                 682916                       # number of replacements
system.cpu.dtb_walker_cache.tags.pwrStateResidencyTicks::UNDEFINED 1081640817000                       # Cumulative time (in ticks) in various power states
system.cpu.dtb_walker_cache.tags.tagsinuse            0                       # Cycle average of tags in use
system.cpu.dtb_walker_cache.tags.total_refs            0                       # Total number of references to valid blocks.
system.cpu.dtb_walker_cache.tags.sampled_refs            0                       # Sample count of references to valid blocks.
system.cpu.dtb_walker_cache.tags.avg_refs          nan                       # Average number of references to valid blocks.
system.cpu.dtb_walker_cache.tags.warmup_cycle            0                       # Cycle when the warmup percentage was hit.
system.cpu.dtb_walker_cache.tags.tag_accesses            0                       # Number of tag accesses
system.cpu.dtb_walker_cache.tags.data_accesses            0                       # Number of data accesses
system.cpu.dtb_walker_cache.pwrStateResidencyTicks::UNDEFINED 1081640817000                       # Cumulative time (in ticks) in various power states
system.cpu.dtb_walker_cache.blocked_cycles::no_mshrs            0                       # number of cycles access was blocked
system.cpu.dtb_walker_cache.blocked_cycles::no_targets            0                       # number of cycles access was blocked
system.cpu.dtb_walker_cache.blocked::no_mshrs            0                       # number of cycles access was blocked
system.cpu.dtb_walker_cache.blocked::no_targets            0                       # number of cycles access was blocked
system.cpu.dtb_walker_cache.avg_blocked_cycles::no_mshrs          nan                       # average number of cycles each access was blocked
system.cpu.dtb_walker_cache.avg_blocked_cycles::no_targets          nan                       # average number of cycles each access was blocked
system.cpu.dtb_walker_cache.replacements            0                       # number of replacements
system.cpu.icache.tags.pwrStateResidencyTicks::UNDEFINED 1081640817000                       # Cumulative time (in ticks) in various power states
system.cpu.icache.tags.tagsinuse           319.419855                       # Cycle average of tags in use
system.cpu.icache.tags.total_refs           657337158                       # Total number of references to valid blocks.
system.cpu.icache.tags.sampled_refs               410                       # Sample count of references to valid blocks.
system.cpu.icache.tags.avg_refs          1603261.360976                       # Average number of references to valid blocks.
system.cpu.icache.tags.warmup_cycle            439000                       # Cycle when the warmup percentage was hit.
system.cpu.icache.tags.occ_blocks::cpu.inst   319.419855                       # Average occupied blocks per requestor
system.cpu.icache.tags.occ_percent::cpu.inst     0.623867                       # Average percentage of cache occupancy
system.cpu.icache.tags.occ_percent::total     0.623867                       # Average percentage of cache occupancy
system.cpu.icache.tags.occ_task_id_blocks::1024          336                       # Occupied blocks per task id
system.cpu.icache.tags.age_task_id_blocks_1024::0           11                       # Occupied blocks per task id
system.cpu.icache.tags.age_task_id_blocks_1024::1           24                       # Occupied blocks per task id
system.cpu.icache.tags.age_task_id_blocks_1024::4          301                       # Occupied blocks per task id
system.cpu.icache.tags.occ_task_id_percent::1024     0.656250                       # Percentage of cache occupancy per task id
system.cpu.icache.tags.tag_accesses        1314674726                       # Number of tag accesses
system.cpu.icache.tags.data_accesses       1314674726                       # Number of data accesses
system.cpu.icache.pwrStateResidencyTicks::UNDEFINED 1081640817000                       # Cumulative time (in ticks) in various power states
system.cpu.icache.ReadReq_hits::cpu.inst    657336748                       # number of ReadReq hits
system.cpu.icache.ReadReq_hits::total       657336748                       # number of ReadReq hits
system.cpu.icache.demand_hits::cpu.inst     657336748                       # number of demand (read+write) hits
system.cpu.icache.demand_hits::total        657336748                       # number of demand (read+write) hits
system.cpu.icache.overall_hits::cpu.inst    657336748                       # number of overall hits
system.cpu.icache.overall_hits::total       657336748                       # number of overall hits
system.cpu.icache.ReadReq_misses::cpu.inst          410                       # number of ReadReq misses
system.cpu.icache.ReadReq_misses::total           410                       # number of ReadReq misses
system.cpu.icache.demand_misses::cpu.inst          410                       # number of demand (read+write) misses
system.cpu.icache.demand_misses::total            410                       # number of demand (read+write) misses
system.cpu.icache.overall_misses::cpu.inst          410                       # number of overall misses
system.cpu.icache.overall_misses::total           410                       # number of overall misses
system.cpu.icache.ReadReq_miss_latency::cpu.inst     86235000                       # number of ReadReq miss cycles
system.cpu.icache.ReadReq_miss_latency::total     86235000                       # number of ReadReq miss cycles
system.cpu.icache.demand_miss_latency::cpu.inst     86235000                       # number of demand (read+write) miss cycles
system.cpu.icache.demand_miss_latency::total     86235000                       # number of demand (read+write) miss cycles
system.cpu.icache.overall_miss_latency::cpu.inst     86235000                       # number of overall miss cycles
system.cpu.icache.overall_miss_latency::total     86235000                       # number of overall miss cycles
system.cpu.icache.ReadReq_accesses::cpu.inst    657337158                       # number of ReadReq accesses(hits+misses)
system.cpu.icache.ReadReq_accesses::total    657337158                       # number of ReadReq accesses(hits+misses)
system.cpu.icache.demand_accesses::cpu.inst    657337158                       # number of demand (read+write) accesses
system.cpu.icache.demand_accesses::total    657337158                       # number of demand (read+write) accesses
system.cpu.icache.overall_accesses::cpu.inst    657337158                       # number of overall (read+write) accesses
system.cpu.icache.overall_accesses::total    657337158                       # number of overall (read+write) accesses
system.cpu.icache.ReadReq_miss_rate::cpu.inst     0.000001                       # miss rate for ReadReq accesses
system.cpu.icache.ReadReq_miss_rate::total     0.000001                       # miss rate for ReadReq accesses
system.cpu.icache.demand_miss_rate::cpu.inst     0.000001                       # miss rate for demand accesses
system.cpu.icache.demand_miss_rate::total     0.000001                       # miss rate for demand accesses
system.cpu.icache.overall_miss_rate::cpu.inst     0.000001                       # miss rate for overall accesses
system.cpu.icache.overall_miss_rate::total     0.000001                       # miss rate for overall accesses
system.cpu.icache.ReadReq_avg_miss_latency::cpu.inst 210329.268293                       # average ReadReq miss latency
system.cpu.icache.ReadReq_avg_miss_latency::total 210329.268293                       # average ReadReq miss latency
system.cpu.icache.demand_avg_miss_latency::cpu.inst 210329.268293                       # average overall miss latency
system.cpu.icache.demand_avg_miss_latency::total 210329.268293                       # average overall miss latency
system.cpu.icache.overall_avg_miss_latency::cpu.inst 210329.268293                       # average overall miss latency
system.cpu.icache.overall_avg_miss_latency::total 210329.268293                       # average overall miss latency
system.cpu.icache.blocked_cycles::no_mshrs            0                       # number of cycles access was blocked
system.cpu.icache.blocked_cycles::no_targets            0                       # number of cycles access was blocked
system.cpu.icache.blocked::no_mshrs                 0                       # number of cycles access was blocked
system.cpu.icache.blocked::no_targets               0                       # number of cycles access was blocked
system.cpu.icache.avg_blocked_cycles::no_mshrs          nan                       # average number of cycles each access was blocked
system.cpu.icache.avg_blocked_cycles::no_targets          nan                       # average number of cycles each access was blocked
system.cpu.icache.writebacks::writebacks           74                       # number of writebacks
system.cpu.icache.writebacks::total                74                       # number of writebacks
system.cpu.icache.ReadReq_mshr_misses::cpu.inst          410                       # number of ReadReq MSHR misses
system.cpu.icache.ReadReq_mshr_misses::total          410                       # number of ReadReq MSHR misses
system.cpu.icache.demand_mshr_misses::cpu.inst          410                       # number of demand (read+write) MSHR misses
system.cpu.icache.demand_mshr_misses::total          410                       # number of demand (read+write) MSHR misses
system.cpu.icache.overall_mshr_misses::cpu.inst          410                       # number of overall MSHR misses
system.cpu.icache.overall_mshr_misses::total          410                       # number of overall MSHR misses
system.cpu.icache.ReadReq_mshr_miss_latency::cpu.inst     85825000                       # number of ReadReq MSHR miss cycles
system.cpu.icache.ReadReq_mshr_miss_latency::total     85825000                       # number of ReadReq MSHR miss cycles
system.cpu.icache.demand_mshr_miss_latency::cpu.inst     85825000                       # number of demand (read+write) MSHR miss cycles
system.cpu.icache.demand_mshr_miss_latency::total     85825000                       # number of demand (read+write) MSHR miss cycles
system.cpu.icache.overall_mshr_miss_latency::cpu.inst     85825000                       # number of overall MSHR miss cycles
system.cpu.icache.overall_mshr_miss_latency::total     85825000                       # number of overall MSHR miss cycles
system.cpu.icache.ReadReq_mshr_miss_rate::cpu.inst     0.000001                       # mshr miss rate for ReadReq accesses
system.cpu.icache.ReadReq_mshr_miss_rate::total     0.000001                       # mshr miss rate for ReadReq accesses
system.cpu.icache.demand_mshr_miss_rate::cpu.inst     0.000001                       # mshr miss rate for demand accesses
system.cpu.icache.demand_mshr_miss_rate::total     0.000001                       # mshr miss rate for demand accesses
system.cpu.icache.overall_mshr_miss_rate::cpu.inst     0.000001                       # mshr miss rate for overall accesses
system.cpu.icache.overall_mshr_miss_rate::total     0.000001                       # mshr miss rate for overall accesses
system.cpu.icache.ReadReq_avg_mshr_miss_latency::cpu.inst 209329.268293                       # average ReadReq mshr miss latency
system.cpu.icache.ReadReq_avg_mshr_miss_latency::total 209329.268293                       # average ReadReq mshr miss latency
system.cpu.icache.demand_avg_mshr_miss_latency::cpu.inst 209329.268293                       # average overall mshr miss latency
system.cpu.icache.demand_avg_mshr_miss_latency::total 209329.268293                       # average overall mshr miss latency
system.cpu.icache.overall_avg_mshr_miss_latency::cpu.inst 209329.268293                       # average overall mshr miss latency
system.cpu.icache.overall_avg_mshr_miss_latency::total 209329.268293                       # average overall mshr miss latency
system.cpu.icache.replacements                     74                       # number of replacements
system.cpu.itb_walker_cache.tags.pwrStateResidencyTicks::UNDEFINED 1081640817000                       # Cumulative time (in ticks) in various power states
system.cpu.itb_walker_cache.tags.tagsinuse            0                       # Cycle average of tags in use
system.cpu.itb_walker_cache.tags.total_refs            0                       # Total number of references to valid blocks.
system.cpu.itb_walker_cache.tags.sampled_refs            0                       # Sample count of references to valid blocks.
system.cpu.itb_walker_cache.tags.avg_refs          nan                       # Average number of references to valid blocks.
system.cpu.itb_walker_cache.tags.warmup_cycle            0                       # Cycle when the warmup percentage was hit.
system.cpu.itb_walker_cache.tags.tag_accesses            0                       # Number of tag accesses
system.cpu.itb_walker_cache.tags.data_accesses            0                       # Number of data accesses
system.cpu.itb_walker_cache.pwrStateResidencyTicks::UNDEFINED 1081640817000                       # Cumulative time (in ticks) in various power states
system.cpu.itb_walker_cache.blocked_cycles::no_mshrs            0                       # number of cycles access was blocked
system.cpu.itb_walker_cache.blocked_cycles::no_targets            0                       # number of cycles access was blocked
system.cpu.itb_walker_cache.blocked::no_mshrs            0                       # number of cycles access was blocked
system.cpu.itb_walker_cache.blocked::no_targets            0                       # number of cycles access was blocked
system.cpu.itb_walker_cache.avg_blocked_cycles::no_mshrs          nan                       # average number of cycles each access was blocked
system.cpu.itb_walker_cache.avg_blocked_cycles::no_targets          nan                       # average number of cycles each access was blocked
system.cpu.itb_walker_cache.replacements            0                       # number of replacements
system.l2.tags.pwrStateResidencyTicks::UNDEFINED 1081640817000                       # Cumulative time (in ticks) in various power states
system.l2.tags.tagsinuse                  2044.903280                       # Cycle average of tags in use
system.l2.tags.total_refs                     1596958                       # Total number of references to valid blocks.
system.l2.tags.sampled_refs                    519857                       # Sample count of references to valid blocks.
system.l2.tags.avg_refs                      3.071918                       # Average number of references to valid blocks.
system.l2.tags.warmup_cycle                    428500                       # Cycle when the warmup percentage was hit.
system.l2.tags.occ_blocks::writebacks        0.997514                       # Average occupied blocks per requestor
system.l2.tags.occ_blocks::cpu.inst          1.342352                       # Average occupied blocks per requestor
system.l2.tags.occ_blocks::cpu.data       2042.563415                       # Average occupied blocks per requestor
system.l2.tags.occ_percent::writebacks       0.000487                       # Average percentage of cache occupancy
system.l2.tags.occ_percent::cpu.inst         0.000655                       # Average percentage of cache occupancy
system.l2.tags.occ_percent::cpu.data         0.997345                       # Average percentage of cache occupancy
system.l2.tags.occ_percent::total            0.998488                       # Average percentage of cache occupancy
system.l2.tags.occ_task_id_blocks::1024          2048                       # Occupied blocks per task id
system.l2.tags.age_task_id_blocks_1024::0           26                       # Occupied blocks per task id
system.l2.tags.age_task_id_blocks_1024::1           57                       # Occupied blocks per task id
system.l2.tags.age_task_id_blocks_1024::3          450                       # Occupied blocks per task id
system.l2.tags.age_task_id_blocks_1024::4         1515                       # Occupied blocks per task id
system.l2.tags.occ_task_id_percent::1024            1                       # Percentage of cache occupancy per task id
system.l2.tags.tag_accesses                  13295521                       # Number of tag accesses
system.l2.tags.data_accesses                 13295521                       # Number of data accesses
system.l2.pwrStateResidencyTicks::UNDEFINED 1081640817000                       # Cumulative time (in ticks) in various power states
system.l2.WritebackDirty_hits::writebacks       658295                       # number of WritebackDirty hits
system.l2.WritebackDirty_hits::total           658295                       # number of WritebackDirty hits
system.l2.WritebackClean_hits::writebacks           74                       # number of WritebackClean hits
system.l2.WritebackClean_hits::total               74                       # number of WritebackClean hits
system.l2.UpgradeReq_hits::cpu.data            230130                       # number of UpgradeReq hits
system.l2.UpgradeReq_hits::total               230130                       # number of UpgradeReq hits
system.l2.ReadExReq_hits::cpu.data               3063                       # number of ReadExReq hits
system.l2.ReadExReq_hits::total                  3063                       # number of ReadExReq hits
system.l2.ReadCleanReq_hits::cpu.inst               5                       # number of ReadCleanReq hits
system.l2.ReadCleanReq_hits::total                  5                       # number of ReadCleanReq hits
system.l2.ReadSharedReq_hits::cpu.data         161021                       # number of ReadSharedReq hits
system.l2.ReadSharedReq_hits::total            161021                       # number of ReadSharedReq hits
system.l2.demand_hits::cpu.inst                     5                       # number of demand (read+write) hits
system.l2.demand_hits::cpu.data                164084                       # number of demand (read+write) hits
system.l2.demand_hits::total                   164089                       # number of demand (read+write) hits
system.l2.overall_hits::cpu.inst                    5                       # number of overall hits
system.l2.overall_hits::cpu.data               164084                       # number of overall hits
system.l2.overall_hits::total                  164089                       # number of overall hits
system.l2.ReadExReq_misses::cpu.data            63407                       # number of ReadExReq misses
system.l2.ReadExReq_misses::total               63407                       # number of ReadExReq misses
system.l2.ReadCleanReq_misses::cpu.inst           405                       # number of ReadCleanReq misses
system.l2.ReadCleanReq_misses::total              405                       # number of ReadCleanReq misses
system.l2.ReadSharedReq_misses::cpu.data       455937                       # number of ReadSharedReq misses
system.l2.ReadSharedReq_misses::total          455937                       # number of ReadSharedReq misses
system.l2.demand_misses::cpu.inst                 405                       # number of demand (read+write) misses
system.l2.demand_misses::cpu.data              519344                       # number of demand (read+write) misses
system.l2.demand_misses::total                 519749                       # number of demand (read+write) misses
system.l2.overall_misses::cpu.inst                405                       # number of overall misses
system.l2.overall_misses::cpu.data             519344                       # number of overall misses
system.l2.overall_misses::total                519749                       # number of overall misses
system.l2.ReadExReq_miss_latency::cpu.data  20163809000                       # number of ReadExReq miss cycles
system.l2.ReadExReq_miss_latency::total   20163809000                       # number of ReadExReq miss cycles
system.l2.ReadCleanReq_miss_latency::cpu.inst     85156500                       # number of ReadCleanReq miss cycles
system.l2.ReadCleanReq_miss_latency::total     85156500                       # number of ReadCleanReq miss cycles
system.l2.ReadSharedReq_miss_latency::cpu.data  95921089000                       # number of ReadSharedReq miss cycles
system.l2.ReadSharedReq_miss_latency::total  95921089000                       # number of ReadSharedReq miss cycles
system.l2.demand_miss_latency::cpu.inst      85156500                       # number of demand (read+write) miss cycles
system.l2.demand_miss_latency::cpu.data  116084898000                       # number of demand (read+write) miss cycles
system.l2.demand_miss_latency::total     116170054500                       # number of demand (read+write) miss cycles
system.l2.overall_miss_latency::cpu.inst     85156500                       # number of overall miss cycles
system.l2.overall_miss_latency::cpu.data 116084898000                       # number of overall miss cycles
system.l2.overall_miss_latency::total    116170054500                       # number of overall miss cycles
system.l2.WritebackDirty_accesses::writebacks       658295                       # number of WritebackDirty accesses(hits+misses)
system.l2.WritebackDirty_accesses::total       658295                       # number of WritebackDirty accesses(hits+misses)
system.l2.WritebackClean_accesses::writebacks           74                       # number of WritebackClean accesses(hits+misses)
system.l2.WritebackClean_accesses::total           74                       # number of WritebackClean accesses(hits+misses)
system.l2.UpgradeReq_accesses::cpu.data        230130                       # number of UpgradeReq accesses(hits+misses)
system.l2.UpgradeReq_accesses::total           230130                       # number of UpgradeReq accesses(hits+misses)
system.l2.ReadExReq_accesses::cpu.data          66470                       # number of ReadExReq accesses(hits+misses)
system.l2.ReadExReq_accesses::total             66470                       # number of ReadExReq accesses(hits+misses)
system.l2.ReadCleanReq_accesses::cpu.inst          410                       # number of ReadCleanReq accesses(hits+misses)
system.l2.ReadCleanReq_accesses::total            410                       # number of ReadCleanReq accesses(hits+misses)
system.l2.ReadSharedReq_accesses::cpu.data       616958                       # number of ReadSharedReq accesses(hits+misses)
system.l2.ReadSharedReq_accesses::total        616958                       # number of ReadSharedReq accesses(hits+misses)
system.l2.demand_accesses::cpu.inst               410                       # number of demand (read+write) accesses
system.l2.demand_accesses::cpu.data            683428                       # number of demand (read+write) accesses
system.l2.demand_accesses::total               683838                       # number of demand (read+write) accesses
system.l2.overall_accesses::cpu.inst              410                       # number of overall (read+write) accesses
system.l2.overall_accesses::cpu.data           683428                       # number of overall (read+write) accesses
system.l2.overall_accesses::total              683838                       # number of overall (read+write) accesses
system.l2.ReadExReq_miss_rate::cpu.data      0.953919                       # miss rate for ReadExReq accesses
system.l2.ReadExReq_miss_rate::total         0.953919                       # miss rate for ReadExReq accesses
system.l2.ReadCleanReq_miss_rate::cpu.inst     0.987805                       # miss rate for ReadCleanReq accesses
system.l2.ReadCleanReq_miss_rate::total      0.987805                       # miss rate for ReadCleanReq accesses
system.l2.ReadSharedReq_miss_rate::cpu.data     0.739008                       # miss rate for ReadSharedReq accesses
system.l2.ReadSharedReq_miss_rate::total     0.739008                       # miss rate for ReadSharedReq accesses
system.l2.demand_miss_rate::cpu.inst         0.987805                       # miss rate for demand accesses
system.l2.demand_miss_rate::cpu.data         0.759910                       # miss rate for demand accesses
system.l2.demand_miss_rate::total            0.760047                       # miss rate for demand accesses
system.l2.overall_miss_rate::cpu.inst        0.987805                       # miss rate for overall accesses
system.l2.overall_miss_rate::cpu.data        0.759910                       # miss rate for overall accesses
system.l2.overall_miss_rate::total           0.760047                       # miss rate for overall accesses
system.l2.ReadExReq_avg_miss_latency::cpu.data 318006.040343                       # average ReadExReq miss latency
system.l2.ReadExReq_avg_miss_latency::total 318006.040343                       # average ReadExReq miss latency
system.l2.ReadCleanReq_avg_miss_latency::cpu.inst 210262.962963                       # average ReadCleanReq miss latency
system.l2.ReadCleanReq_avg_miss_latency::total 210262.962963                       # average ReadCleanReq miss latency
system.l2.ReadSharedReq_avg_miss_latency::cpu.data 210382.331331                       # average ReadSharedReq miss latency
system.l2.ReadSharedReq_avg_miss_latency::total 210382.331331                       # average ReadSharedReq miss latency
system.l2.demand_avg_miss_latency::cpu.inst 210262.962963                       # average overall miss latency
system.l2.demand_avg_miss_latency::cpu.data 223522.170276                       # average overall miss latency
system.l2.demand_avg_miss_latency::total 223511.838407                       # average overall miss latency
system.l2.overall_avg_miss_latency::cpu.inst 210262.962963                       # average overall miss latency
system.l2.overall_avg_miss_latency::cpu.data 223522.170276                       # average overall miss latency
system.l2.overall_avg_miss_latency::total 223511.838407                       # average overall miss latency
system.l2.blocked_cycles::no_mshrs                  0                       # number of cycles access was blocked
system.l2.blocked_cycles::no_targets                0                       # number of cycles access was blocked
system.l2.blocked::no_mshrs                         0                       # number of cycles access was blocked
system.l2.blocked::no_targets                       0                       # number of cycles access was blocked
system.l2.avg_blocked_cycles::no_mshrs            nan                       # average number of cycles each access was blocked
system.l2.avg_blocked_cycles::no_targets          nan                       # average number of cycles each access was blocked
system.l2.writebacks::writebacks               509374                       # number of writebacks
system.l2.writebacks::total                    509374                       # number of writebacks
system.l2.ReadExReq_mshr_misses::cpu.data        63407                       # number of ReadExReq MSHR misses
system.l2.ReadExReq_mshr_misses::total          63407                       # number of ReadExReq MSHR misses
system.l2.ReadCleanReq_mshr_misses::cpu.inst          405                       # number of ReadCleanReq MSHR misses
system.l2.ReadCleanReq_mshr_misses::total          405                       # number of ReadCleanReq MSHR misses
system.l2.ReadSharedReq_mshr_misses::cpu.data       455937                       # number of ReadSharedReq MSHR misses
system.l2.ReadSharedReq_mshr_misses::total       455937                       # number of ReadSharedReq MSHR misses
system.l2.demand_mshr_misses::cpu.inst            405                       # number of demand (read+write) MSHR misses
system.l2.demand_mshr_misses::cpu.data         519344                       # number of demand (read+write) MSHR misses
system.l2.demand_mshr_misses::total            519749                       # number of demand (read+write) MSHR misses
system.l2.overall_mshr_misses::cpu.inst           405                       # number of overall MSHR misses
system.l2.overall_mshr_misses::cpu.data        519344                       # number of overall MSHR misses
system.l2.overall_mshr_misses::total           519749                       # number of overall MSHR misses
system.l2.ReadExReq_mshr_miss_latency::cpu.data  19529739000                       # number of ReadExReq MSHR miss cycles
system.l2.ReadExReq_mshr_miss_latency::total  19529739000                       # number of ReadExReq MSHR miss cycles
system.l2.ReadCleanReq_mshr_miss_latency::cpu.inst     81106500                       # number of ReadCleanReq MSHR miss cycles
system.l2.ReadCleanReq_mshr_miss_latency::total     81106500                       # number of ReadCleanReq MSHR miss cycles
system.l2.ReadSharedReq_mshr_miss_latency::cpu.data  91361719000                       # number of ReadSharedReq MSHR miss cycles
system.l2.ReadSharedReq_mshr_miss_latency::total  91361719000                       # number of ReadSharedReq MSHR miss cycles
system.l2.demand_mshr_miss_latency::cpu.inst     81106500                       # number of demand (read+write) MSHR miss cycles
system.l2.demand_mshr_miss_latency::cpu.data 110891458000                       # number of demand (read+write) MSHR miss cycles
system.l2.demand_mshr_miss_latency::total 110972564500                       # number of demand (read+write) MSHR miss cycles
system.l2.overall_mshr_miss_latency::cpu.inst     81106500                       # number of overall MSHR miss cycles
system.l2.overall_mshr_miss_latency::cpu.data 110891458000                       # number of overall MSHR miss cycles
system.l2.overall_mshr_miss_latency::total 110972564500                       # number of overall MSHR miss cycles
system.l2.ReadExReq_mshr_miss_rate::cpu.data     0.953919                       # mshr miss rate for ReadExReq accesses
system.l2.ReadExReq_mshr_miss_rate::total     0.953919                       # mshr miss rate for ReadExReq accesses
system.l2.ReadCleanReq_mshr_miss_rate::cpu.inst     0.987805                       # mshr miss rate for ReadCleanReq accesses
system.l2.ReadCleanReq_mshr_miss_rate::total     0.987805                       # mshr miss rate for ReadCleanReq accesses
system.l2.ReadSharedReq_mshr_miss_rate::cpu.data     0.739008                       # mshr miss rate for ReadSharedReq accesses
system.l2.ReadSharedReq_mshr_miss_rate::total     0.739008                       # mshr miss rate for ReadSharedReq accesses
system.l2.demand_mshr_miss_rate::cpu.inst     0.987805                       # mshr miss rate for demand accesses
system.l2.demand_mshr_miss_rate::cpu.data     0.759910                       # mshr miss rate for demand accesses
system.l2.demand_mshr_miss_rate::total       0.760047                       # mshr miss rate for demand accesses
system.l2.overall_mshr_miss_rate::cpu.inst     0.987805                       # mshr miss rate for overall accesses
system.l2.overall_mshr_miss_rate::cpu.data     0.759910                       # mshr miss rate for overall accesses
system.l2.overall_mshr_miss_rate::total      0.760047                       # mshr miss rate for overall accesses
system.l2.ReadExReq_avg_mshr_miss_latency::cpu.data 308006.040343                       # average ReadExReq mshr miss latency
system.l2.ReadExReq_avg_mshr_miss_latency::total 308006.040343                       # average ReadExReq mshr miss latency
system.l2.ReadCleanReq_avg_mshr_miss_latency::cpu.inst 200262.962963                       # average ReadCleanReq mshr miss latency
system.l2.ReadCleanReq_avg_mshr_miss_latency::total 200262.962963                       # average ReadCleanReq mshr miss latency
system.l2.ReadSharedReq_avg_mshr_miss_latency::cpu.data 200382.331331                       # average ReadSharedReq mshr miss latency
system.l2.ReadSharedReq_avg_mshr_miss_latency::total 200382.331331                       # average ReadSharedReq mshr miss latency
system.l2.demand_avg_mshr_miss_latency::cpu.inst 200262.962963                       # average overall mshr miss latency
system.l2.demand_avg_mshr_miss_latency::cpu.data 213522.170276                       # average overall mshr miss latency
system.l2.demand_avg_mshr_miss_latency::total 213511.838407                       # average overall mshr miss latency
system.l2.overall_avg_mshr_miss_latency::cpu.inst 200262.962963                       # average overall mshr miss latency
system.l2.overall_avg_mshr_miss_latency::cpu.data 213522.170276                       # average overall mshr miss latency
system.l2.overall_avg_mshr_miss_latency::total 213511.838407                       # average overall mshr miss latency
system.l2.replacements                         517809                       # number of replacements
system.l3.tags.pwrStateResidencyTicks::UNDEFINED 1081640817000                       # Cumulative time (in ticks) in various power states
system.l3.tags.tagsinuse                 16112.690847                       # Cycle average of tags in use
system.l3.tags.total_refs                     1036959                       # Total number of references to valid blocks.
system.l3.tags.sampled_refs                    285987                       # Sample count of references to valid blocks.
system.l3.tags.avg_refs                      3.625896                       # Average number of references to valid blocks.
system.l3.tags.warmup_cycle                    418000                       # Cycle when the warmup percentage was hit.
system.l3.tags.occ_blocks::writebacks      492.972920                       # Average occupied blocks per requestor
system.l3.tags.occ_blocks::cpu.inst          5.882487                       # Average occupied blocks per requestor
system.l3.tags.occ_blocks::cpu.data      15613.835440                       # Average occupied blocks per requestor
system.l3.tags.occ_percent::writebacks       0.030089                       # Average percentage of cache occupancy
system.l3.tags.occ_percent::cpu.inst         0.000359                       # Average percentage of cache occupancy
system.l3.tags.occ_percent::cpu.data         0.952993                       # Average percentage of cache occupancy
system.l3.tags.occ_percent::total            0.983441                       # Average percentage of cache occupancy
system.l3.tags.occ_task_id_blocks::1024         16384                       # Occupied blocks per task id
system.l3.tags.age_task_id_blocks_1024::0           17                       # Occupied blocks per task id
system.l3.tags.age_task_id_blocks_1024::1           45                       # Occupied blocks per task id
system.l3.tags.age_task_id_blocks_1024::4        16322                       # Occupied blocks per task id
system.l3.tags.occ_task_id_percent::1024            1                       # Percentage of cache occupancy per task id
system.l3.tags.tag_accesses                   1323135                       # Number of tag accesses
system.l3.tags.data_accesses                  1323135                       # Number of data accesses
system.l3.pwrStateResidencyTicks::UNDEFINED 1081640817000                       # Cumulative time (in ticks) in various power states
system.l3.WritebackDirty_hits::writebacks       509373                       # number of WritebackDirty hits
system.l3.WritebackDirty_hits::total           509373                       # number of WritebackDirty hits
system.l3.ReadExReq_hits::cpu.data                858                       # number of ReadExReq hits
system.l3.ReadExReq_hits::total                   858                       # number of ReadExReq hits
system.l3.ReadSharedReq_hits::cpu.data         248598                       # number of ReadSharedReq hits
system.l3.ReadSharedReq_hits::total            248598                       # number of ReadSharedReq hits
system.l3.demand_hits::cpu.data                249456                       # number of demand (read+write) hits
system.l3.demand_hits::total                   249456                       # number of demand (read+write) hits
system.l3.overall_hits::cpu.data               249456                       # number of overall hits
system.l3.overall_hits::total                  249456                       # number of overall hits
system.l3.ReadExReq_misses::cpu.data            62549                       # number of ReadExReq misses
system.l3.ReadExReq_misses::total               62549                       # number of ReadExReq misses
system.l3.ReadSharedReq_misses::cpu.inst          405                       # number of ReadSharedReq misses
system.l3.ReadSharedReq_misses::cpu.data       207339                       # number of ReadSharedReq misses
system.l3.ReadSharedReq_misses::total          207744                       # number of ReadSharedReq misses
system.l3.demand_misses::cpu.inst                 405                       # number of demand (read+write) misses
system.l3.demand_misses::cpu.data              269888                       # number of demand (read+write) misses
system.l3.demand_misses::total                 270293                       # number of demand (read+write) misses
system.l3.overall_misses::cpu.inst                405                       # number of overall misses
system.l3.overall_misses::cpu.data             269888                       # number of overall misses
system.l3.overall_misses::total                270293                       # number of overall misses
system.l3.ReadExReq_miss_latency::cpu.data  18823253000                       # number of ReadExReq miss cycles
system.l3.ReadExReq_miss_latency::total   18823253000                       # number of ReadExReq miss cycles
system.l3.ReadSharedReq_miss_latency::cpu.inst     76651500                       # number of ReadSharedReq miss cycles
system.l3.ReadSharedReq_miss_latency::cpu.data  83731332000                       # number of ReadSharedReq miss cycles
system.l3.ReadSharedReq_miss_latency::total  83807983500                       # number of ReadSharedReq miss cycles
system.l3.demand_miss_latency::cpu.inst      76651500                       # number of demand (read+write) miss cycles
system.l3.demand_miss_latency::cpu.data  102554585000                       # number of demand (read+write) miss cycles
system.l3.demand_miss_latency::total     102631236500                       # number of demand (read+write) miss cycles
system.l3.overall_miss_latency::cpu.inst     76651500                       # number of overall miss cycles
system.l3.overall_miss_latency::cpu.data 102554585000                       # number of overall miss cycles
system.l3.overall_miss_latency::total    102631236500                       # number of overall miss cycles
system.l3.WritebackDirty_accesses::writebacks       509373                       # number of WritebackDirty accesses(hits+misses)
system.l3.WritebackDirty_accesses::total       509373                       # number of WritebackDirty accesses(hits+misses)
system.l3.ReadExReq_accesses::cpu.data          63407                       # number of ReadExReq accesses(hits+misses)
system.l3.ReadExReq_accesses::total             63407                       # number of ReadExReq accesses(hits+misses)
system.l3.ReadSharedReq_accesses::cpu.inst          405                       # number of ReadSharedReq accesses(hits+misses)
system.l3.ReadSharedReq_accesses::cpu.data       455937                       # number of ReadSharedReq accesses(hits+misses)
system.l3.ReadSharedReq_accesses::total        456342                       # number of ReadSharedReq accesses(hits+misses)
system.l3.demand_accesses::cpu.inst               405                       # number of demand (read+write) accesses
system.l3.demand_accesses::cpu.data            519344                       # number of demand (read+write) accesses
system.l3.demand_accesses::total               519749                       # number of demand (read+write) accesses
system.l3.overall_accesses::cpu.inst              405                       # number of overall (read+write) accesses
system.l3.overall_accesses::cpu.data           519344                       # number of overall (read+write) accesses
system.l3.overall_accesses::total              519749                       # number of overall (read+write) accesses
system.l3.ReadExReq_miss_rate::cpu.data      0.986468                       # miss rate for ReadExReq accesses
system.l3.ReadExReq_miss_rate::total         0.986468                       # miss rate for ReadExReq accesses
system.l3.ReadSharedReq_miss_rate::cpu.inst            1                       # miss rate for ReadSharedReq accesses
system.l3.ReadSharedReq_miss_rate::cpu.data     0.454754                       # miss rate for ReadSharedReq accesses
system.l3.ReadSharedReq_miss_rate::total     0.455238                       # miss rate for ReadSharedReq accesses
system.l3.demand_miss_rate::cpu.inst                1                       # miss rate for demand accesses
system.l3.demand_miss_rate::cpu.data         0.519671                       # miss rate for demand accesses
system.l3.demand_miss_rate::total            0.520045                       # miss rate for demand accesses
system.l3.overall_miss_rate::cpu.inst               1                       # miss rate for overall accesses
system.l3.overall_miss_rate::cpu.data        0.519671                       # miss rate for overall accesses
system.l3.overall_miss_rate::total           0.520045                       # miss rate for overall accesses
system.l3.ReadExReq_avg_miss_latency::cpu.data 300936.114087                       # average ReadExReq miss latency
system.l3.ReadExReq_avg_miss_latency::total 300936.114087                       # average ReadExReq miss latency
system.l3.ReadSharedReq_avg_miss_latency::cpu.inst 189262.962963                       # average ReadSharedReq miss latency
system.l3.ReadSharedReq_avg_miss_latency::cpu.data 403837.830799                       # average ReadSharedReq miss latency
system.l3.ReadSharedReq_avg_miss_latency::total 403419.513921                       # average ReadSharedReq miss latency
system.l3.demand_avg_miss_latency::cpu.inst 189262.962963                       # average overall miss latency
system.l3.demand_avg_miss_latency::cpu.data 379989.421538                       # average overall miss latency
system.l3.demand_avg_miss_latency::total 379703.641974                       # average overall miss latency
system.l3.overall_avg_miss_latency::cpu.inst 189262.962963                       # average overall miss latency
system.l3.overall_avg_miss_latency::cpu.data 379989.421538                       # average overall miss latency
system.l3.overall_avg_miss_latency::total 379703.641974                       # average overall miss latency
system.l3.blocked_cycles::no_mshrs                  0                       # number of cycles access was blocked
system.l3.blocked_cycles::no_targets                0                       # number of cycles access was blocked
system.l3.blocked::no_mshrs                         0                       # number of cycles access was blocked
system.l3.blocked::no_targets                       0                       # number of cycles access was blocked
system.l3.avg_blocked_cycles::no_mshrs            nan                       # average number of cycles each access was blocked
system.l3.avg_blocked_cycles::no_targets          nan                       # average number of cycles each access was blocked
system.l3.writebacks::writebacks               247489                       # number of writebacks
system.l3.writebacks::total                    247489                       # number of writebacks
system.l3.CleanEvict_mshr_misses::writebacks          189                       # number of CleanEvict MSHR misses
system.l3.CleanEvict_mshr_misses::total           189                       # number of CleanEvict MSHR misses
system.l3.ReadExReq_mshr_misses::cpu.data        62549                       # number of ReadExReq MSHR misses
system.l3.ReadExReq_mshr_misses::total          62549                       # number of ReadExReq MSHR misses
system.l3.ReadSharedReq_mshr_misses::cpu.inst          405                       # number of ReadSharedReq MSHR misses
system.l3.ReadSharedReq_mshr_misses::cpu.data       207339                       # number of ReadSharedReq MSHR misses
system.l3.ReadSharedReq_mshr_misses::total       207744                       # number of ReadSharedReq MSHR misses
system.l3.demand_mshr_misses::cpu.inst            405                       # number of demand (read+write) MSHR misses
system.l3.demand_mshr_misses::cpu.data         269888                       # number of demand (read+write) MSHR misses
system.l3.demand_mshr_misses::total            270293                       # number of demand (read+write) MSHR misses
system.l3.overall_mshr_misses::cpu.inst           405                       # number of overall MSHR misses
system.l3.overall_mshr_misses::cpu.data        269888                       # number of overall MSHR misses
system.l3.overall_mshr_misses::total           270293                       # number of overall MSHR misses
system.l3.ReadExReq_mshr_miss_latency::cpu.data  18197763000                       # number of ReadExReq MSHR miss cycles
system.l3.ReadExReq_mshr_miss_latency::total  18197763000                       # number of ReadExReq MSHR miss cycles
system.l3.ReadSharedReq_mshr_miss_latency::cpu.inst     72601500                       # number of ReadSharedReq MSHR miss cycles
system.l3.ReadSharedReq_mshr_miss_latency::cpu.data  81657942000                       # number of ReadSharedReq MSHR miss cycles
system.l3.ReadSharedReq_mshr_miss_latency::total  81730543500                       # number of ReadSharedReq MSHR miss cycles
system.l3.demand_mshr_miss_latency::cpu.inst     72601500                       # number of demand (read+write) MSHR miss cycles
system.l3.demand_mshr_miss_latency::cpu.data  99855705000                       # number of demand (read+write) MSHR miss cycles
system.l3.demand_mshr_miss_latency::total  99928306500                       # number of demand (read+write) MSHR miss cycles
system.l3.overall_mshr_miss_latency::cpu.inst     72601500                       # number of overall MSHR miss cycles
system.l3.overall_mshr_miss_latency::cpu.data  99855705000                       # number of overall MSHR miss cycles
system.l3.overall_mshr_miss_latency::total  99928306500                       # number of overall MSHR miss cycles
system.l3.CleanEvict_mshr_miss_rate::writebacks          inf                       # mshr miss rate for CleanEvict accesses
system.l3.CleanEvict_mshr_miss_rate::total          inf                       # mshr miss rate for CleanEvict accesses
system.l3.ReadExReq_mshr_miss_rate::cpu.data     0.986468                       # mshr miss rate for ReadExReq accesses
system.l3.ReadExReq_mshr_miss_rate::total     0.986468                       # mshr miss rate for ReadExReq accesses
system.l3.ReadSharedReq_mshr_miss_rate::cpu.inst            1                       # mshr miss rate for ReadSharedReq accesses
system.l3.ReadSharedReq_mshr_miss_rate::cpu.data     0.454754                       # mshr miss rate for ReadSharedReq accesses
system.l3.ReadSharedReq_mshr_miss_rate::total     0.455238                       # mshr miss rate for ReadSharedReq accesses
system.l3.demand_mshr_miss_rate::cpu.inst            1                       # mshr miss rate for demand accesses
system.l3.demand_mshr_miss_rate::cpu.data     0.519671                       # mshr miss rate for demand accesses
system.l3.demand_mshr_miss_rate::total       0.520045                       # mshr miss rate for demand accesses
system.l3.overall_mshr_miss_rate::cpu.inst            1                       # mshr miss rate for overall accesses
system.l3.overall_mshr_miss_rate::cpu.data     0.519671                       # mshr miss rate for overall accesses
system.l3.overall_mshr_miss_rate::total      0.520045                       # mshr miss rate for overall accesses
system.l3.ReadExReq_avg_mshr_miss_latency::cpu.data 290936.114087                       # average ReadExReq mshr miss latency
system.l3.ReadExReq_avg_mshr_miss_latency::total 290936.114087                       # average ReadExReq mshr miss latency
system.l3.ReadSharedReq_avg_mshr_miss_latency::cpu.inst 179262.962963                       # average ReadSharedReq mshr miss latency
system.l3.ReadSharedReq_avg_mshr_miss_latency::cpu.data 393837.830799                       # average ReadSharedReq mshr miss latency
system.l3.ReadSharedReq_avg_mshr_miss_latency::total 393419.513921                       # average ReadSharedReq mshr miss latency
system.l3.demand_avg_mshr_miss_latency::cpu.inst 179262.962963                       # average overall mshr miss latency
system.l3.demand_avg_mshr_miss_latency::cpu.data 369989.421538                       # average overall mshr miss latency
system.l3.demand_avg_mshr_miss_latency::total 369703.641974                       # average overall mshr miss latency
system.l3.overall_avg_mshr_miss_latency::cpu.inst 179262.962963                       # average overall mshr miss latency
system.l3.overall_avg_mshr_miss_latency::cpu.data 369989.421538                       # average overall mshr miss latency
system.l3.overall_avg_mshr_miss_latency::total 369703.641974                       # average overall mshr miss latency
system.l3.replacements                         269603                       # number of replacements
system.membus.snoop_filter.tot_requests        529495                       # Total number of requests made to the snoop filter.
system.membus.snoop_filter.hit_single_requests       259202                       # Number of requests hitting in the snoop filter with a single holder of the requested data.
system.membus.snoop_filter.hit_multi_requests            0                       # Number of requests hitting in the snoop filter with multiple (>1) holders of the requested data.
system.membus.snoop_filter.tot_snoops               0                       # Total number of snoops made to the snoop filter.
system.membus.snoop_filter.hit_single_snoops            0                       # Number of snoops hitting in the snoop filter with a single holder of the requested data.
system.membus.snoop_filter.hit_multi_snoops            0                       # Number of snoops hitting in the snoop filter with multiple (>1) holders of the requested data.
system.membus.pwrStateResidencyTicks::UNDEFINED 1081640817000                       # Cumulative time (in ticks) in various power states
system.membus.trans_dist::ReadResp             207744                       # Transaction distribution
system.membus.trans_dist::WritebackDirty       247489                       # Transaction distribution
system.membus.trans_dist::CleanEvict             6098                       # Transaction distribution
system.membus.trans_dist::ReadExReq             62549                       # Transaction distribution
system.membus.trans_dist::ReadExResp            62549                       # Transaction distribution
system.membus.trans_dist::ReadSharedReq        207744                       # Transaction distribution
system.membus.pkt_count_system.l3.mem_side::system.mem_ctrls.port       794173                       # Packet count per connected master and slave (bytes)
system.membus.pkt_count_system.l3.mem_side::total       794173                       # Packet count per connected master and slave (bytes)
system.membus.pkt_count::total                 794173                       # Packet count per connected master and slave (bytes)
system.membus.pkt_size_system.l3.mem_side::system.mem_ctrls.port     33138048                       # Cumulative packet size per connected master and slave (bytes)
system.membus.pkt_size_system.l3.mem_side::total     33138048                       # Cumulative packet size per connected master and slave (bytes)
system.membus.pkt_size::total                33138048                       # Cumulative packet size per connected master and slave (bytes)
system.membus.snoops                                0                       # Total snoops (count)
system.membus.snoopTraffic                          0                       # Total snoop traffic (bytes)
system.membus.snoop_fanout::samples            270293                       # Request fanout histogram
system.membus.snoop_fanout::mean                    0                       # Request fanout histogram
system.membus.snoop_fanout::stdev                   0                       # Request fanout histogram
system.membus.snoop_fanout::underflows              0      0.00%      0.00% # Request fanout histogram
system.membus.snoop_fanout::0                  270293    100.00%    100.00% # Request fanout histogram
system.membus.snoop_fanout::1                       0      0.00%    100.00% # Request fanout histogram
system.membus.snoop_fanout::overflows               0      0.00%    100.00% # Request fanout histogram
system.membus.snoop_fanout::min_value               0                       # Request fanout histogram
system.membus.snoop_fanout::max_value               0                       # Request fanout histogram
system.membus.snoop_fanout::total              270293                       # Request fanout histogram
system.membus.reqLayer2.occupancy          1519456000                       # Layer occupancy (ticks)
system.membus.reqLayer2.utilization               0.1                       # Layer utilization (%)
system.membus.respLayer1.occupancy         1351468000                       # Layer occupancy (ticks)
system.membus.respLayer1.utilization              0.1                       # Layer utilization (%)
system.tol2bus.snoop_filter.tot_requests      1596958                       # Total number of requests made to the snoop filter.
system.tol2bus.snoop_filter.hit_single_requests       913120                       # Number of requests hitting in the snoop filter with a single holder of the requested data.
system.tol2bus.snoop_filter.hit_multi_requests            0                       # Number of requests hitting in the snoop filter with multiple (>1) holders of the requested data.
system.tol2bus.snoop_filter.tot_snoops           5485                       # Total number of snoops made to the snoop filter.
system.tol2bus.snoop_filter.hit_single_snoops         5485                       # Number of snoops hitting in the snoop filter with a single holder of the requested data.
system.tol2bus.snoop_filter.hit_multi_snoops            0                       # Number of snoops hitting in the snoop filter with multiple (>1) holders of the requested data.
system.tol2bus.pwrStateResidencyTicks::UNDEFINED 1081640817000                       # Cumulative time (in ticks) in various power states
system.tol2bus.trans_dist::ReadResp            617368                       # Transaction distribution
system.tol2bus.trans_dist::WritebackDirty      1415158                       # Transaction distribution
system.tol2bus.trans_dist::WritebackClean           74                       # Transaction distribution
system.tol2bus.trans_dist::CleanEvict           55170                       # Transaction distribution
system.tol2bus.trans_dist::UpgradeReq          230130                       # Transaction distribution
system.tol2bus.trans_dist::UpgradeResp         230130                       # Transaction distribution
system.tol2bus.trans_dist::ReadExReq            66470                       # Transaction distribution
system.tol2bus.trans_dist::ReadExResp           66470                       # Transaction distribution
system.tol2bus.trans_dist::ReadCleanReq           410                       # Transaction distribution
system.tol2bus.trans_dist::ReadSharedReq       616958                       # Transaction distribution
system.tol2bus.pkt_count_system.cpu.icache.mem_side::system.l2.cpu_side          894                       # Packet count per connected master and slave (bytes)
system.tol2bus.pkt_count_system.cpu.dcache.mem_side::system.l2.cpu_side      2510032                       # Packet count per connected master and slave (bytes)
system.tol2bus.pkt_count::total               2510926                       # Packet count per connected master and slave (bytes)
system.tol2bus.pkt_size_system.cpu.icache.mem_side::system.l2.cpu_side        30976                       # Cumulative packet size per connected master and slave (bytes)
system.tol2bus.pkt_size_system.cpu.dcache.mem_side::system.l2.cpu_side     85870272                       # Cumulative packet size per connected master and slave (bytes)
system.tol2bus.pkt_size::total               85901248                       # Cumulative packet size per connected master and slave (bytes)
system.tol2bus.snoops                          787412                       # Total snoops (count)
system.tol2bus.snoopTraffic                  48439232                       # Total snoop traffic (bytes)
system.tol2bus.snoop_fanout::samples          1701380                       # Request fanout histogram
system.tol2bus.snoop_fanout::mean            0.003224                       # Request fanout histogram
system.tol2bus.snoop_fanout::stdev           0.056687                       # Request fanout histogram
system.tol2bus.snoop_fanout::underflows             0      0.00%      0.00% # Request fanout histogram
system.tol2bus.snoop_fanout::0                1695895     99.68%     99.68% # Request fanout histogram
system.tol2bus.snoop_fanout::1                   5485      0.32%    100.00% # Request fanout histogram
system.tol2bus.snoop_fanout::2                      0      0.00%    100.00% # Request fanout histogram
system.tol2bus.snoop_fanout::3                      0      0.00%    100.00% # Request fanout histogram
system.tol2bus.snoop_fanout::4                      0      0.00%    100.00% # Request fanout histogram
system.tol2bus.snoop_fanout::overflows              0      0.00%    100.00% # Request fanout histogram
system.tol2bus.snoop_fanout::min_value              0                       # Request fanout histogram
system.tol2bus.snoop_fanout::max_value              1                       # Request fanout histogram
system.tol2bus.snoop_fanout::total            1701380                       # Request fanout histogram
system.tol2bus.reqLayer0.occupancy         1456848000                       # Layer occupancy (ticks)
system.tol2bus.reqLayer0.utilization              0.1                       # Layer utilization (%)
system.tol2bus.respLayer0.occupancy            615000                       # Layer occupancy (ticks)
system.tol2bus.respLayer0.utilization             0.0                       # Layer utilization (%)
system.tol2bus.respLayer1.occupancy        1140207000                       # Layer occupancy (ticks)
system.tol2bus.respLayer1.utilization             0.1                       # Layer utilization (%)
system.tol3bus.pwrStateResidencyTicks::UNDEFINED 1081640817000                       # Cumulative time (in ticks) in various power states
system.tol3bus.trans_dist::ReadResp            456342                       # Transaction distribution
system.tol3bus.trans_dist::WritebackDirty       756862                       # Transaction distribution
system.tol3bus.trans_dist::CleanEvict           30140                       # Transaction distribution
system.tol3bus.trans_dist::ReadExReq            63407                       # Transaction distribution
system.tol3bus.trans_dist::ReadExResp           63407                       # Transaction distribution
system.tol3bus.trans_dist::ReadSharedReq       456342                       # Transaction distribution
system.tol3bus.pkt_count_system.l2.mem_side::system.l3.cpu_side      1556897                       # Packet count per connected master and slave (bytes)
system.tol3bus.pkt_size_system.l2.mem_side::system.l3.cpu_side     65863808                       # Cumulative packet size per connected master and slave (bytes)
system.tol3bus.snoops                          269603                       # Total snoops (count)
system.tol3bus.snoopTraffic                  15839296                       # Total snoop traffic (bytes)
system.tol3bus.snoop_fanout::samples          1306753                       # Request fanout histogram
system.tol3bus.snoop_fanout::mean            0.206315                       # Request fanout histogram
system.tol3bus.snoop_fanout::stdev           0.404660                       # Request fanout histogram
system.tol3bus.snoop_fanout::underflows             0      0.00%      0.00% # Request fanout histogram
system.tol3bus.snoop_fanout::0                1037150     79.37%     79.37% # Request fanout histogram
system.tol3bus.snoop_fanout::1                 269603     20.63%    100.00% # Request fanout histogram
system.tol3bus.snoop_fanout::overflows              0      0.00%    100.00% # Request fanout histogram
system.tol3bus.snoop_fanout::min_value              0                       # Request fanout histogram
system.tol3bus.snoop_fanout::max_value              1                       # Request fanout histogram
system.tol3bus.snoop_fanout::total            1306753                       # Request fanout histogram
system.tol3bus.reqLayer0.occupancy         1027948998                       # Layer occupancy (ticks)
system.tol3bus.reqLayer0.utilization              0.1                       # Layer utilization (%)
system.tol3bus.respLayer0.occupancy         779623502                       # Layer occupancy (ticks)
system.tol3bus.respLayer0.utilization             0.1                       # Layer utilization (%)

---------- End Simulation Statistics   ----------
